 
-------------------------------------------------------------------------------
|                               DAFoam v3.1.2                                 |
-------------------------------------------------------------------------------
 
/*---------------------------------------------------------------------------*\
| =========                 |                                                 |
| \\      /  F ield         | OpenFOAM: The Open Source CFD Toolbox           |
|  \\    /   O peration     | Version:  v1812                                 |
|   \\  /    A nd           | Web:      www.OpenFOAM.com                      |
|    \\/     M anipulation  |                                                 |
\*---------------------------------------------------------------------------*/
Build  : v1812 OPENFOAM=1812
Arch   : "LSB;label=32;scalar=64"
Exec   : decomposePar
Date   : Oct 22 2024
Time   : 10:22:24
Host   : 27084c93db99
PID    : 420
I/O    : uncollated
Case   : /home/dafoamuser/mount
nProcs : 1
trapFpe: Floating point exception trapping enabled (FOAM_SIGFPE).
fileModificationChecking : Monitoring run-time modified files using timeStampMaster (fileModificationSkew 10)
allowSystemOperations : Allowing user-supplied system call operations

// * * * * * * * * * * * * * * * * * * * * * * * * * * * * * * * * * * * * * //
Create time

Overriding DebugSwitches according to controlDict
    SolverPerformance 0;



Decomposing mesh region0

Create mesh

Calculating distribution of cells
Selecting decompositionMethod scotch [4]

Finished decomposition in 0.01 s

Calculating original mesh data

Distributing cells to processors

Distributing faces to processors

Distributing points to processors

Constructing processor meshes
Overriding DebugSwitches according to controlDict
    SolverPerformance 0;


Processor 0
    Number of cells = 1008
    Number of faces shared with processor 1 = 33
    Number of faces shared with processor 2 = 32
    Number of processor patches = 2
    Number of processor faces = 65
    Number of boundary faces = 2079
Overriding DebugSwitches according to controlDict
    SolverPerformance 0;


Processor 1
    Number of cells = 1008
    Number of faces shared with processor 0 = 33
    Number of faces shared with processor 3 = 32
    Number of processor patches = 2
    Number of processor faces = 65
    Number of boundary faces = 2079
Overriding DebugSwitches according to controlDict
    SolverPerformance 0;


Processor 2
    Number of cells = 1008
    Number of faces shared with processor 0 = 32
    Number of faces shared with processor 3 = 34
    Number of processor patches = 2
    Number of processor faces = 66
    Number of boundary faces = 2078
Overriding DebugSwitches according to controlDict
    SolverPerformance 0;


Processor 3
    Number of cells = 1008
    Number of faces shared with processor 1 = 32
    Number of faces shared with processor 2 = 34
    Number of processor patches = 2
    Number of processor faces = 66
    Number of boundary faces = 2080

Number of processor faces = 131
Max number of cells = 1008 (0% above average 1008)
Max number of processor patches = 2 (0% above average 2)
Max number of faces between processors = 66 (0.7633587786259542% above average 65.5)

Time = 0

Processor 0: field transfer
Overriding DebugSwitches according to controlDict
    SolverPerformance 0;

Processor 1: field transfer
Overriding DebugSwitches according to controlDict
    SolverPerformance 0;

Processor 2: field transfer
Overriding DebugSwitches according to controlDict
    SolverPerformance 0;

Processor 3: field transfer
Overriding DebugSwitches according to controlDict
    SolverPerformance 0;


End

I/O    : uncollated
Case   : /home/dafoamuser/mount
nProcs : 4
Hosts  :
(
    (27084c93db99 4)
)
Pstream initialized with:
    floatTransfer      : 0
    nProcsSimpleSum    : 0
    commsType          : nonBlocking
    polling iterations : 0
Create time

Overriding DebugSwitches according to controlDict
    SolverPerformance 0;

Create mesh for time = 0
Initializing mesh and runtime for DASolver
DAOpton initialized 
I/O    : uncollated
Case   : /home/dafoamuser/mount
nProcs : 4
Hosts  :
(
    (27084c93db99 4)
)
Pstream initialized with:
    floatTransfer      : 0
    nProcsSimpleSum    : 0
    commsType          : nonBlocking
    polling iterations : 0
Create time

Overriding DebugSwitches according to controlDict
    SolverPerformance 0;

Create mesh for time = 0
Initializing mesh and runtime for DASolver
DAOpton initialized 
Initializing fields for DARhoSimpleFoam
Create simpleControl.

SIMPLE: no convergence criteria found. Calculations will run for 1000 steps.

Reading thermophysical properties

Selecting thermodynamics package 
{
    mixture         pureMixture;
    specie          specie;
    equationOfState perfectGas;
    energy          sensibleInternalEnergy;
    thermo          hConst;
    type            hePsiThermo;
    transport       const;
}

Reading field U

Reading/calculating face flux field phi

Creating source term. 
Creating turbulence model

Selecting turbulence model type RAS
Selecting RAS turbulence model SpalartAllmaras
Selecting patchDistMethod meshWaveFrozen
No MRF models present

Adjoint States: 
5
(
U volVectorState
nuTilda modelState
phi surfaceScalarState
p volScalarState
T volScalarState
)
Global Cells: 4032
Global Faces: 16385
Global Xv: 25758
Undecomposed points: 8316
Global Adjoint States: 40577

SIMPLE: no convergence criteria found. Calculations will run for 1000 steps.

initState: 
7
(
nuTilda 4.5e-05
phi -0.02731788143462453
U1 0
U2 0
p 101325
T 300
U0 100
)
DACheckMesh Thresholds: 
maxNonOrth: 70
maxSkewness: 4
maxAspectRatio: 1000
maxIncorrectlyOrientedFaces: 0
    Adding all faces of patches 1(wing) ...
    Found matching patch wing with 32 faces.
    Adding all faces of patches 1(wing) ...
    Found matching patch wing with 32 faces.
Initializing fields for DARhoSimpleFoam
Create simpleControl.

SIMPLE: no convergence criteria found. Calculations will run for 1000 steps.

Reading thermophysical properties

Selecting thermodynamics package 
{
    mixture         pureMixture;
    specie          specie;
    equationOfState perfectGas;
    energy          sensibleInternalEnergy;
    thermo          hConst;
    type            hePsiThermo;
    transport       const;
}

Reading field U

Reading/calculating face flux field phi

Creating source term. 
Creating turbulence model

Selecting turbulence model type RAS
Selecting RAS turbulence model SpalartAllmaras
Selecting patchDistMethod meshWaveFrozen
No MRF models present

Adjoint States: 
5
(
U volVectorState
nuTilda modelState
phi surfaceScalarState
p volScalarState
T volScalarState
)
Global Cells: 4032
Global Faces: 16385
Global Xv: 25758
Undecomposed points: 8316
Global Adjoint States: 40577

SIMPLE: no convergence criteria found. Calculations will run for 1000 steps.

initState: 
7
(
nuTilda 4.5e-05
phi -0.02731788143462453
U1 0
U2 0
p 101325
T 300
U0 100
)
DACheckMesh Thresholds: 
maxNonOrth: 70
maxSkewness: 4
maxAspectRatio: 1000
maxIncorrectlyOrientedFaces: 0
    Adding all faces of patches 1(wing) ...
    Found matching patch wing with 32 faces.
    Adding all faces of patches 1(wing) ...
    Found matching patch wing with 32 faces.
DAFoam option dictionary: 
{
    solverName      DARhoSimpleFoam;
    primalMinResTol 1e-08;
    primalObjStdTol
    {
        active          0;
        objFuncName     None;
        steps           200;
        tol             1e-05;
        tolDiff         100;
    }
    primalBC
    {
        U0
        {
            variable        U;
            patches         1 ( inout );
            value           3 ( 100 0 0 );
        }
        p0
        {
            variable        p;
            patches         1 ( inout );
            value           1 ( 101325 );
        }
        T0
        {
            variable        T;
            patches         1 ( inout );
            value           1 ( 300 );
        }
        nuTilda0
        {
            variable        nuTilda;
            patches         1 ( inout );
            value           1 ( 4.5e-05 );
        }
        useWallFunction 1;
    }
    normalizeStates
    {
        U               100;
        p               101325;
        T               300;
        nuTilda         0.00045;
        phi             1;
    }
    objFunc
    {
        CD
        {
            part1
            {
                type            force;
                source          patchToFace;
                patches         1 ( wing );
                directionMode   parallelToFlow;
                alphaName       aoa;
                scale           0.001699481865284974;
                addToAdjoint    1;
            }
        }
        CL
        {
            part1
            {
                type            force;
                source          patchToFace;
                patches         1 ( wing );
                directionMode   normalToFlow;
                alphaName       aoa;
                scale           0.001699481865284974;
                addToAdjoint    1;
            }
        }
    }
    designVar
    {
        aoa
        {
            designVarType   AOA;
            patches         1 ( inout );
            flowAxis        x;
            normalAxis      y;
        }
        shape
        {
            designVarType   FFD;
        }
    }
    designSurfaces  1 ( wing );
    couplingInfo
    {
        aerostructural
        {
            active          0;
            pRef            0;
            propMovement    0;
            couplingSurfaceGroups
            {
                wingGroup       2 ( wing wing_te );
            }
        }
        aerothermal
        {
            active          0;
            couplingSurfaceGroups
            {
                wallGroup       1 ( fin_wall );
            }
        }
        aeroacoustic
        {
            active          0;
            pRef            0;
            couplingSurfaceGroups
            {
                blade1Group     2 ( blade1_ps blade1_ss );
                blade2Group     1 ( blade2 );
            }
        }
    }
    aeroPropulsive
    {
    }
    primalOnly      0;
    fvSource
    {
    }
    adjEqnSolMethod Krylov;
    primalVarBounds
    {
        UMax            1000;
        UMin            -1000;
        pMax            500000;
        pMin            20000;
        p_rghMax        500000;
        p_rghMin        20000;
        eMax            500000;
        eMin            100000;
        TMax            1000;
        TMin            100;
        hMax            500000;
        hMin            100000;
        DMax            1e+16;
        DMin            -1e+16;
        rhoMax          5;
        rhoMin          0.2;
        nuTildaMax      1e+16;
        nuTildaMin      1e-16;
        kMax            1e+16;
        kMin            1e-16;
        omegaMax        1e+16;
        omegaMin        1e-16;
        epsilonMax      1e+16;
        epsilonMin      1e-16;
        ReThetatMax     1e+16;
        ReThetatMin     1e-16;
        gammaIntMax     1e+16;
        gammaIntMin     1e-16;
    }
    discipline      aero;
    multiPoint      0;
    nMultiPoints    1;
    adjPartDerivFDStep
    {
        State           1e-06;
        FFD             0.001;
        BC              0.01;
        AOA             0.001;
        ACTP            0.01;
        ACTD            0.01;
        ACTL            0.01;
    }
    transonicPCOption -1;
    unsteadyAdjoint
    {
        mode            None;
        nTimeInstances  -1;
        periodicity     -1;
        objFuncStartTime -1;
        objFuncEndTime  -1;
        objFuncTimeOperator None;
        PCMatPrecomputeInterval 100;
        PCMatUpdateInterval 1;
        reduceIO        1;
        additionalOutput 1 ( None );
        readZeroFields  1;
    }
    objFuncAvgStart 1;
    adjPCLag        10000;
    useAD
    {
        mode            reverse;
        dvName          None;
        seedIndex       -9999;
    }
    rigidBodyMotion
    {
        mode            dummy;
    }
    hasIterativeBC  0;
    useConstrainHbyA 0;
    regressionModel
    {
        active          0;
    }
    useMeanStates
    {
        active          0;
        start           0.5;
    }
    runStatus       None;
    printPYDAFOAMOptions 0;
    printDAOptions  1;
    debug           0;
    writeJacobians  1 ( None );
    printInterval   100;
    printIntervalUnsteady 500;
    primalMinResTolDiff 100;
    adjUseColoring  1;
    adjEqnOption
    {
        globalPCIters   0;
        asmOverlap      1;
        localPCIters    1;
        jacMatReOrdering rcm;
        pcFillLevel     1;
        gmresMaxIters   1000;
        gmresRestart    1000;
        gmresRelTol     1e-06;
        gmresAbsTol     1e-14;
        gmresTolDiff    100;
        useNonZeroInitGuess 0;
        useMGSO         0;
        printInfo       1;
        fpMaxIters      1000;
        fpRelTol        1e-06;
        fpMinResTolDiff 100;
        fpPCUpwind      0;
        dynAdjustTol    1;
    }
    normalizeResiduals 10 ( URes pRes p_rghRes nuTildaRes phiRes TRes DRes kRes omegaRes epsilonRes );
    maxResConLv4JacPCMat
    {
        pRes            2;
        phiRes          1;
        URes            2;
        TRes            2;
        nuTildaRes      2;
        kRes            2;
        epsilonRes      2;
        omegaRes        2;
        p_rghRes        2;
        DRes            2;
        gammaIntRes     2;
        ReThetatRes     2;
    }
    jacLowerBounds
    {
        dRdW            1e-30;
        dRdWPC          1e-30;
    }
    maxTractionBCIters 100;
    decomposeParDict
    {
        method          scotch;
        simpleCoeffs
        {
            n               3 ( 2 2 1 );
            delta           0.001;
        }
        preservePatches 1 ( None );
        singleProcessorFaceSets 1 ( None );
    }
    adjStateOrdering state;
    meshSurfaceFamily None;
    checkMeshThreshold
    {
        maxAspectRatio  1000;
        maxNonOrth      70;
        maxSkewness     4;
        maxIncorrectlyOrientedFaces 0;
    }
    writeSensMap    1 ( NONE );
    writeDeformedFFDs 0;
    writeDeformedConstraints 0;
    maxCorrectBCCalls 10;
    writeMinorIterations 0;
    runLowOrderPrimal4PC
    {
        active          0;
    }
    wingProp
    {
        test_propeller_default
        {
            active          0;
            nForceSections  10;
            axis            3 ( 1 0 0 );
            rotationCenter  3 { 0 };
            actEps          0.02;
            rotDir          right;
            interpScheme    Poly4Gauss;
            bladeName       blade;
        }
    }
    primalMinIters  1;
    tensorflow
    {
        active          0;
        modelName       model;
        nInputs         1;
        nOutputs        1;
        batchSize       1000;
    }
}

Init solver done! ElapsedClockTime 3.000000 s
Init solver done!. ElapsedCpuTime 0.610000 s
Reading OpenFOAM mesh information...
I/O    : uncollated
Case   : /home/dafoamuser/mount
nProcs : 4
Hosts  :
(
    (27084c93db99 4)
)
Pstream initialized with:
    floatTransfer      : 0
    nProcsSimpleSum    : 0
    commsType          : nonBlocking
    polling iterations : 0
Reading the OpenFOAM mesh..
Overriding DebugSwitches according to controlDict
    SolverPerformance 0;

Finalising parallel run
Checking if we need to compress the mesh files
Checking if we need to compress the mesh files
I/O    : uncollated
pyDAFoam initialization done!
+----------------------------------------+
|          All IDWarp Options:           |
+----------------------------------------+
{'LdefFact': 1.0,
 'aExp': 3.0,
 'alpha': 0.25,
 'bExp': 5.0,
 'bucketSize': 8,
 'cornerAngle': 30.0,
 'errTol': 0.0005,
 'evalMode': 'fast',
 'fileType': 'OpenFOAM',
 'gridFile': '/home/dafoamuser/mount',
 'restartFile': None,
 'specifiedSurfaces': None,
 'symmTol': 1e-06,
 'symmetryPlanes': [[[0.0, 0.0, 0.0], [0.0, 0.0, 1.0]],
                    [[0.0, 0.0, 0.1], [0.0, 0.0, 1.0]]],
 'symmetrySurfaces': None,
 'useRotations': True,
 'zeroCornerRotations': True}
I/O    : uncollated
Case   : /home/dafoamuser/mount
nProcs : 4
Hosts  :
(
    (27084c93db99 4)
)
Pstream initialized with:
    floatTransfer      : 0
    nProcsSimpleSum    : 0
    commsType          : nonBlocking
    polling iterations : 0
Reading the OpenFOAM mesh..
Overriding DebugSwitches according to controlDict
    SolverPerformance 0;

Finalising parallel run
Checking if we need to compress the mesh files
Checking if we need to compress the mesh files
#------------------------------#
 Total Volume Nodes :      8586 
#------------------------------#
I/O    : uncollated
+-------------------- Symmetry Planes -------------------+
|           Point                        Normal          |
| (  0.000   0.000   0.000)    (  0.000   0.000   1.000) |
| (  0.000   0.000   0.100)    (  0.000   0.000   1.000) |
+--------------------------------------------------------+
#--------------------------------#
 Unique Surface Nodes :       252 
#--------------------------------#
 Computing Denomenator Estimate...
 Load Balancing...
 Finished Mesh Initialization.
OrderedDict([('inout', [0]), ('procBoundary0to1', [1]), ('procBoundary0to2', [2]), ('symmetry1', [3]), ('symmetry2', [4]), ('wing', [5]), ('allSurfaces', [0, 1, 2, 3, 4, 5]), ('allWalls', [5]), ('designSurfaces', [5])])
dRdWT Jacobian Free created!
Finding a feasible design using the Newton method. 
Constraints:  ['cruise.aero_post.CL']
Design Vars:  ['aoa']
Target:  [0.5]
Setting up primal boundary conditions based on pyOptions: 
Setting primal boundary conditions...
Setting U = (99.75640502598242 6.97564737441253 0) at inout
Setting primal boundary conditions...
Setting p = 101325 at inout
Setting primal boundary conditions...
Setting T = 300 at inout
Setting primal boundary conditions...
Setting nuTilda = 4.5e-05 at inout
Setting nut wall BC for wing. BCType=nutUSpaldingWallFunction
Running Primal Solver 001
Previous solution time -1e+10 not found and nothing deleted.
No finite volume options present

Starting time loop

Checking mesh quality for time = 0
    Overall domain bounding box (-17.36955992934097 -18.580929029828 0) (18.72808974732804 18.580929008908 0.1)
    Mesh has 3 geometric (non-empty/wedge) directions 3{1}
    Mesh has 3 solution (non-empty) directions 3{1}
    Boundary openness (-4.00357692004596e-19 1.106679799037094e-19 -3.853013719984887e-16) OK.
    Max cell openness = 2.647572244145361e-16 OK.
    Max aspect ratio = 97.87218721638284 OK.
    Minimum face area = 2.254099143164308e-06. Maximum face area = 4.224820321497278.  Face area magnitudes OK.
    Min volume = 2.254099144856892e-07. Max volume = 0.422482032106397.  Total volume = 105.2804018655529.  Cell volumes OK.
    Mesh non-orthogonality Max: 22.74891598092847 average: 2.54793458191072
    Non-orthogonality check OK.
    Face pyramids OK.
    Max skewness = 1.432464754648327 OK.
    Coupled point location match (average 0) OK.

Mesh OK.

Time = 1

U Initial residual: (0.9999999999975351 1 0.9999999999992114)
U   Final residual: (0.08153238592961176 0.08049281387142125 0.09302028319800984)
he Initial residual: 0.9999999880623944
he   Final residual: 0.08780599117327355
p Initial residual: 0.9999999999988353
p   Final residual: 0.06111826061838522
Time step continuity errors : sum local = 0.01576472726844895
                                 global = -0.004965179597848728
                             cumulative = -0.004965179597848728
nuTilda Initial residual: 0.9999999999999679
nuTilda   Final residual: 0.07959628147722431
Bounding nuTilda>1e-16
yPlus min: 341.006822075465 max: 637.0183160659569 mean: 592.0493301379842
CD-part1-force: 0.5003586925389631
CL-part1-force: -0.03039085901024663
ExecutionTime = 2.28 s  ClockTime = 5 s

Time = 100

U Initial residual: (0.001125455205608187 0.0005563622452939096 0.00200039012591702)
U   Final residual: (9.196235281063315e-05 4.577764896398743e-05 0.0001332687505924211)
he Initial residual: 0.00294955762698922
he   Final residual: 0.0002274454677828019
p Initial residual: 0.001568092137837884
p   Final residual: 0.0001096653450379361
Time step continuity errors : sum local = 3.117919454403996e-05
                                 global = -1.089273311654298e-06
                             cumulative = -0.004966268871160383
nuTilda Initial residual: 2.02698659558178e-05
nuTilda   Final residual: 2.025538677270677e-06
Bounding nuTilda>1e-16
yPlus min: 130.9538030896283 max: 690.7538885626697 mean: 486.5997484804965
CD-part1-force: 0.01550927085240073
CL-part1-force: 0.4056169207414371
ExecutionTime = 3.32 s  ClockTime = 6 s

Time = 200

U Initial residual: (3.557995921271614e-05 1.948416400567131e-05 0.000400568060741479)
U   Final residual: (2.933478024771676e-06 1.593066447792145e-06 2.88291858033161e-05)
he Initial residual: 8.682154579531351e-05
he   Final residual: 6.589063459037685e-06
p Initial residual: 3.285217934854788e-05
p   Final residual: 2.613296039921437e-06
Time step continuity errors : sum local = 7.550748179727825e-07
                                 global = -1.0283675834083e-07
                             cumulative = -0.004966371707918723
nuTilda Initial residual: 3.373777757403717e-07
nuTilda   Final residual: 3.229019129370655e-08
Bounding nuTilda>1e-16
yPlus min: 133.2149066073763 max: 694.898517254371 mean: 484.6673565028993
CD-part1-force: 0.01457537963061761
CL-part1-force: 0.4230608728755669
ExecutionTime = 4.31 s  ClockTime = 7 s

Time = 300

U Initial residual: (1.840448074058466e-06 1.068462026727606e-06 0.0003463319480357799)
U   Final residual: (1.525255080376623e-07 8.603626073880262e-08 2.369054328570353e-05)
he Initial residual: 4.430746730782782e-06
he   Final residual: 3.357100282597818e-07
p Initial residual: 1.918926046166264e-06
p   Final residual: 1.530470449143349e-07
Time step continuity errors : sum local = 4.425113649795464e-08
                                 global = -8.512506719271733e-09
                             cumulative = -0.004966380220425443
nuTilda Initial residual: 2.09651886108894e-08
nuTilda   Final residual: 1.818373458849529e-09
Bounding nuTilda>1e-16
yPlus min: 133.1768348364713 max: 695.1747718906976 mean: 484.6036073233961
CD-part1-force: 0.01453755440515647
CL-part1-force: 0.4239873732294654
ExecutionTime = 5.37 s  ClockTime = 8 s

Time = 400

U Initial residual: (9.253185656809776e-08 5.267667924123925e-08 0.000345964955784783)
U   Final residual: (7.625936692128476e-09 4.272922903666394e-09 2.501722399755172e-05)
he Initial residual: 2.243501106622936e-07
he   Final residual: 1.683882653692763e-08
p Initial residual: 8.885206230875155e-08
p   Final residual: 8.799831323919415e-09
Time step continuity errors : sum local = 2.544404367122901e-09
                                 global = 2.776343106999708e-10
                             cumulative = -0.004966379942791132
nuTilda Initial residual: 1.268261577034039e-09
nuTilda   Final residual: 9.919836247048159e-11
Bounding nuTilda>1e-16
yPlus min: 133.1742462802844 max: 695.1884403315008 mean: 484.5992638803468
CD-part1-force: 0.01453550522886538
CL-part1-force: 0.424036270863688
ExecutionTime = 6.41 s  ClockTime = 9 s

Time = 500

U Initial residual: (4.551627941671891e-09 2.549703820854776e-09 0.0003122631218774093)
U   Final residual: (3.715743624925734e-10 2.053153811417185e-10 2.185448398025094e-05)
he Initial residual: 1.108777814319064e-08
he   Final residual: 8.31762600730716e-10
p Initial residual: 4.557422167174921e-09
p   Final residual: 3.932987537023543e-10
Time step continuity errors : sum local = 1.137500315366705e-10
                                 global = -2.208633143883144e-11
                             cumulative = -0.004966379964877463
nuTilda Initial residual: 6.435399969607065e-11
nuTilda   Final residual: 4.947796784673487e-12
Bounding nuTilda>1e-16
yPlus min: 133.1741018615657 max: 695.1891158033316 mean: 484.5990410015891
CD-part1-force: 0.014535402424942
CL-part1-force: 0.424038705189492
ExecutionTime = 7.41 s  ClockTime = 10 s

Time = 504
Minimal residual 9.819510709656499e-09 satisfied the prescribed tolerance 1e-08

CD-part1-force: 0.01453540182282964
CL-part1-force: 0.4240387196794408
Printing Primal Residual Statistics.
U Residual Norm2: (0.01955177934957178 0.01839448378379274 1.899344713497934e-08)
U Residual Mean: (0.000165536017138061 5.702640406051863e-05 2.12109362218025e-10)
U Residual Max: (0.003891882952302694 0.006381666520610452 1.170783734054089e-09)
p Residual Norm2: 0.0005430790683364984
p Residual Mean: 8.695226880096891e-07
p Residual Max: 0.0002389878564578091
T Residual Norm2: 2.446637654931978
T Residual Mean: 0.02045206762932234
T Residual Max: 0.5150583189609835
nuTilda Residual Norm2: 4.208980677593051e-06
nuTilda Residual Mean: 1.429338215523016e-08
nuTilda Residual Max: 8.26527625455439e-07
phi Residual Norm2: 2.766124609131958e-06
phi Residual Mean: 7.546945337587749e-09
phi Residual Max: 6.674169051495118e-07
End

FindFeasibleDesign Iter:  0
DesignVars:  [4.]
Constraints:  [0.4240387196789825]
Residual Norm:  0.1519225606420349
Setting up primal boundary conditions based on pyOptions: 
Setting primal boundary conditions...
Setting U = (99.75628326277452 6.977388451067647 0) at inout
Setting primal boundary conditions...
Setting p = 101325 at inout
Setting primal boundary conditions...
Setting T = 300 at inout
Setting primal boundary conditions...
Setting nuTilda = 4.5e-05 at inout
Setting nut wall BC for wing. BCType=nutUSpaldingWallFunction
Running Primal Solver 002
Previous solution time 504 found and deleted.
No finite volume options present

Starting time loop

Checking mesh quality for time = 0
    Overall domain bounding box (-17.36955992934097 -18.580929029828 0) (18.72808974732804 18.580929008908 0.1)
    Mesh has 3 geometric (non-empty/wedge) directions 3{1}
    Mesh has 3 solution (non-empty) directions 3{1}
    Boundary openness (-4.00357692004596e-19 1.106679799037094e-19 -3.853013719984887e-16) OK.
    Max cell openness = 2.647572244145361e-16 OK.
    Max aspect ratio = 97.87218721638284 OK.
    Minimum face area = 2.254099143164308e-06. Maximum face area = 4.224820321497278.  Face area magnitudes OK.
    Min volume = 2.254099144856892e-07. Max volume = 0.422482032106397.  Total volume = 105.2804018655529.  Cell volumes OK.
    Mesh non-orthogonality Max: 22.74891598092847 average: 2.54793458191072
    Non-orthogonality check OK.
    Face pyramids OK.
    Max skewness = 1.432464754648327 OK.
    Coupled point location match (average 0) OK.

Mesh OK.

Time = 1

U Initial residual: (0.0001977450792493991 0.00014054541829985 0.001812349640033915)
U   Final residual: (1.751344869841724e-05 1.198702260970289e-05 0.000147346078814241)
he Initial residual: 0.0001142715297458021
he   Final residual: 9.009274694629413e-06
p Initial residual: 0.00149351730460574
p   Final residual: 0.0001012070423809744
Time step continuity errors : sum local = 2.929659304596678e-05
                                 global = 2.703011743208719e-06
                             cumulative = -0.004963676953134255
nuTilda Initial residual: 6.862612298804944e-05
nuTilda   Final residual: 6.540974731910246e-06
Bounding nuTilda>1e-16
yPlus min: 133.7259175289311 max: 211.3853041921935 mean: 191.2542244946725
CD-part1-force: 0.007610624623357598
CL-part1-force: 0.4240417149587508
ExecutionTime = 7.77 s  ClockTime = 12 s

Time = 100

U Initial residual: (1.63669069203958e-05 8.433958915499435e-06 0.0003585676487846762)
U   Final residual: (1.245746413634864e-06 7.018924132979021e-07 2.485897456474455e-05)
he Initial residual: 4.47962998687041e-05
he   Final residual: 3.261427553397099e-06
p Initial residual: 2.017365312453007e-05
p   Final residual: 1.984549086917375e-06
Time step continuity errors : sum local = 5.740127251485933e-07
                                 global = -1.411463700421518e-08
                             cumulative = -0.004963691067771259
nuTilda Initial residual: 2.074213869713732e-07
nuTilda   Final residual: 1.517401464215372e-08
Bounding nuTilda>1e-16
yPlus min: 133.1306462989239 max: 695.3086635000591 mean: 484.5605403595156
CD-part1-force: 0.0145225614376725
CL-part1-force: 0.4243834090341636
ExecutionTime = 9.31 s  ClockTime = 13 s

Time = 200

U Initial residual: (5.181873370009928e-07 2.897856849405675e-07 0.0003285312327058609)
U   Final residual: (4.161820973936669e-08 2.289786562887706e-08 2.474140007020568e-05)
he Initial residual: 1.271886121529889e-06
he   Final residual: 9.37550385838346e-08
p Initial residual: 6.619696667312823e-07
p   Final residual: 5.725247072784976e-08
Time step continuity errors : sum local = 1.655595041153219e-08
                                 global = -1.45056173687259e-09
                             cumulative = -0.004963692518332996
nuTilda Initial residual: 5.531055745053876e-09
nuTilda   Final residual: 5.156185624007221e-10
Bounding nuTilda>1e-16
yPlus min: 133.1619037060893 max: 695.2245132663249 mean: 484.5874368097793
CD-part1-force: 0.01453675671288357
CL-part1-force: 0.4241528165314783
ExecutionTime = 10.86 s  ClockTime = 15 s

Time = 300

U Initial residual: (2.736574098619822e-08 1.402922265736198e-08 0.0003204901747865166)
U   Final residual: (2.179944919744127e-09 1.147397485063362e-09 2.253906656323007e-05)
he Initial residual: 6.888767480544821e-08
he   Final residual: 5.037729294399314e-09
p Initial residual: 2.450507014950014e-08
p   Final residual: 1.610725368152981e-09
Time step continuity errors : sum local = 4.657946680499737e-10
                                 global = 5.732436444656878e-11
                             cumulative = -0.004963692461008631
nuTilda Initial residual: 4.253979451210262e-10
nuTilda   Final residual: 3.254492373126727e-11
Bounding nuTilda>1e-16
yPlus min: 133.1624053663527 max: 695.2203111195615 mean: 484.5881757616526
CD-part1-force: 0.01453729720764407
CL-part1-force: 0.4241396517114957
ExecutionTime = 12.37 s  ClockTime = 16 s

Time = 361
Minimal residual 9.752942008191379e-09 satisfied the prescribed tolerance 1e-08

CD-part1-force: 0.01453732326080637
CL-part1-force: 0.4241390692757001
Printing Primal Residual Statistics.
U Residual Norm2: (0.01954962917998447 0.01855157233114891 3.31020954510967e-08)
U Residual Mean: (0.0001651375258327762 5.903318204378234e-05 3.33385881811453e-10)
U Residual Max: (0.003903678501956165 0.006426385429222137 6.035328732084501e-09)
p Residual Norm2: 0.0005435141465723688
p Residual Mean: 8.579693138267116e-07
p Residual Max: 0.0002427232669546108
T Residual Norm2: 2.501183536396849
T Residual Mean: 0.02066363315418941
T Residual Max: 0.5142731037410019
nuTilda Residual Norm2: 3.814496373289149e-06
nuTilda Residual Mean: 1.318331899625583e-08
nuTilda Residual Max: 7.278718158516901e-07
phi Residual Norm2: 2.778782341484527e-06
phi Residual Mean: 7.546760893180168e-09
phi Residual Max: 6.715562054752316e-07
End

Setting up primal boundary conditions based on pyOptions: 
Setting primal boundary conditions...
Setting U = (99.65554266607052 8.292937714163712 0) at inout
Setting primal boundary conditions...
Setting p = 101325 at inout
Setting primal boundary conditions...
Setting T = 300 at inout
Setting primal boundary conditions...
Setting nuTilda = 4.5e-05 at inout
Setting nut wall BC for wing. BCType=nutUSpaldingWallFunction
Running Primal Solver 003
Previous solution time 361 found and deleted.
No finite volume options present

Starting time loop

Checking mesh quality for time = 0
    Overall domain bounding box (-17.36955992934097 -18.580929029828 0) (18.72808974732804 18.580929008908 0.1)
    Mesh has 3 geometric (non-empty/wedge) directions 3{1}
    Mesh has 3 solution (non-empty) directions 3{1}
    Boundary openness (-4.00357692004596e-19 1.106679799037094e-19 -3.853013719984887e-16) OK.
    Max cell openness = 2.647572244145361e-16 OK.
    Max aspect ratio = 97.87218721638284 OK.
    Minimum face area = 2.254099143164308e-06. Maximum face area = 4.224820321497278.  Face area magnitudes OK.
    Min volume = 2.254099144856892e-07. Max volume = 0.422482032106397.  Total volume = 105.2804018655529.  Cell volumes OK.
    Mesh non-orthogonality Max: 22.74891598092847 average: 2.54793458191072
    Non-orthogonality check OK.
    Face pyramids OK.
    Max skewness = 1.432464754648327 OK.
    Coupled point location match (average 0) OK.

Mesh OK.

Time = 1

U Initial residual: (0.00211072619146182 0.02485638586407499 0.005694344014693584)
U   Final residual: (0.0001581703796551404 0.002010511138164987 0.000443129407589114)
he Initial residual: 0.0007692549202400777
he   Final residual: 6.002761201497008e-05
p Initial residual: 0.1461881811791267
p   Final residual: 0.005350140923724133
Time step continuity errors : sum local = 0.001645883000147866
                                 global = 2.338868647965804e-05
                             cumulative = -0.004940303774528973
nuTilda Initial residual: 7.320536569002782e-05
nuTilda   Final residual: 4.447579428812448e-06
Bounding nuTilda>1e-16
yPlus min: 133.7208170381893 max: 211.3738635904288 mean: 191.2580935222725
CD-part1-force: 0.01343133356525827
CL-part1-force: 0.4252785713234957
ExecutionTime = 13.57 s  ClockTime = 19 s

Time = 100

U Initial residual: (0.0001198034191255754 6.765528693300026e-05 0.0003484170579892155)
U   Final residual: (9.886920340264072e-06 5.489037836900564e-06 2.572011217856165e-05)
he Initial residual: 0.0003118065711133789
he   Final residual: 2.350143824907573e-05
p Initial residual: 0.0001309097256963475
p   Final residual: 1.274221961026893e-05
Time step continuity errors : sum local = 3.942997708759545e-06
                                 global = 2.085684363289532e-08
                             cumulative = -0.00494028291768534
nuTilda Initial residual: 5.230747042712545e-06
nuTilda   Final residual: 4.557467355936986e-07
Bounding nuTilda>1e-16
yPlus min: 101.1474396840548 max: 716.3419137358451 mean: 475.7268472707513
CD-part1-force: 0.01631797967560278
CL-part1-force: 0.4958767751329241
ExecutionTime = 14.84 s  ClockTime = 20 s

Time = 200

U Initial residual: (3.710342591409732e-06 2.502398962312031e-06 0.0001582038319353592)
U   Final residual: (2.946071070385012e-07 1.841361264708723e-07 1.111664287446967e-05)
he Initial residual: 8.958093865454559e-06
he   Final residual: 6.771145816665327e-07
p Initial residual: 4.868927868724449e-06
p   Final residual: 4.454591199036842e-07
Time step continuity errors : sum local = 1.381859960818071e-07
                                 global = 1.951364021226253e-08
                             cumulative = -0.004940263404045128
nuTilda Initial residual: 4.270551028897147e-08
nuTilda   Final residual: 4.126461435059244e-09
Bounding nuTilda>1e-16
yPlus min: 100.1805312079203 max: 717.0420690873126 mean: 475.3636134402175
CD-part1-force: 0.01617563804478594
CL-part1-force: 0.4982052720520542
ExecutionTime = 16.14 s  ClockTime = 21 s

Time = 300

U Initial residual: (1.995763635196945e-07 1.139641038037822e-07 0.000152261130779498)
U   Final residual: (1.635281501706603e-08 9.019250351557172e-09 1.075132932083851e-05)
he Initial residual: 4.950448475801748e-07
he   Final residual: 3.841507920569438e-08
p Initial residual: 1.859555486214225e-07
p   Final residual: 1.503958189896569e-08
Time step continuity errors : sum local = 4.665870412244803e-09
                                 global = -7.379368812465996e-10
                             cumulative = -0.004940264141982008
nuTilda Initial residual: 2.887609271477995e-09
nuTilda   Final residual: 2.737830251416587e-10
Bounding nuTilda>1e-16
yPlus min: 100.1442935388211 max: 717.0717086194953 mean: 475.3537436905616
CD-part1-force: 0.01617054011925223
CL-part1-force: 0.4983093680981519
ExecutionTime = 17.57 s  ClockTime = 23 s

Time = 400

U Initial residual: (7.187754800565501e-09 3.929589392013537e-09 0.0001574742290405872)
U   Final residual: (5.752890674569e-10 3.147854593958614e-10 1.080737960099087e-05)
he Initial residual: 1.858561305202408e-08
he   Final residual: 1.37678965966392e-09
p Initial residual: 7.497110840548071e-09
p   Final residual: 6.463174806540454e-10
Time step continuity errors : sum local = 2.004954356660367e-10
                                 global = -4.819981067996981e-11
                             cumulative = -0.004940264190181819
nuTilda Initial residual: 1.379102293325304e-10
nuTilda   Final residual: 1.101362094959704e-11
Bounding nuTilda>1e-16
yPlus min: 100.1423355054983 max: 717.0730596214896 mean: 475.3531666584473
CD-part1-force: 0.01617025515652659
CL-part1-force: 0.498314008571505
ExecutionTime = 18.82 s  ClockTime = 24 s

Time = 420
Minimal residual 9.738488510526346e-09 satisfied the prescribed tolerance 1e-08

CD-part1-force: 0.01617024981824455
CL-part1-force: 0.4983141026004674
Printing Primal Residual Statistics.
U Residual Norm2: (0.02087623457476638 0.0213023816779921 2.856346023707891e-08)
U Residual Mean: (0.0001710548206016768 6.021228541335153e-05 2.804122946593221e-10)
U Residual Max: (0.004686403437517583 0.007892239023931324 3.481694687236297e-09)
p Residual Norm2: 0.0006120374058711658
p Residual Mean: 9.598973827345238e-07
p Residual Max: 0.0002519866185054357
T Residual Norm2: 2.44507440450744
T Residual Mean: 0.02059255467498698
T Residual Max: 0.37351694317848
nuTilda Residual Norm2: 6.04083707709251e-06
nuTilda Residual Mean: 1.990893909537319e-08
nuTilda Residual Max: 1.20815915295371e-06
phi Residual Norm2: 2.955266398165879e-06
phi Residual Mean: 8.071846244637161e-09
phi Residual Max: 7.474645445243086e-07
End

FindFeasibleDesign Iter:  1
DesignVars:  [4.756966469782685]
Constraints:  [0.4983141025999167]
Residual Norm:  0.003371794800166583
Setting up primal boundary conditions based on pyOptions: 
Setting primal boundary conditions...
Setting U = (99.65539791182434 8.294677030237922 0) at inout
Setting primal boundary conditions...
Setting p = 101325 at inout
Setting primal boundary conditions...
Setting T = 300 at inout
Setting primal boundary conditions...
Setting nuTilda = 4.5e-05 at inout
Setting nut wall BC for wing. BCType=nutUSpaldingWallFunction
Running Primal Solver 004
Previous solution time 420 found and deleted.
No finite volume options present

Starting time loop

Checking mesh quality for time = 0
    Overall domain bounding box (-17.36955992934097 -18.580929029828 0) (18.72808974732804 18.580929008908 0.1)
    Mesh has 3 geometric (non-empty/wedge) directions 3{1}
    Mesh has 3 solution (non-empty) directions 3{1}
    Boundary openness (-4.00357692004596e-19 1.106679799037094e-19 -3.853013719984887e-16) OK.
    Max cell openness = 2.647572244145361e-16 OK.
    Max aspect ratio = 97.87218721638284 OK.
    Minimum face area = 2.254099143164308e-06. Maximum face area = 4.224820321497278.  Face area magnitudes OK.
    Min volume = 2.254099144856892e-07. Max volume = 0.422482032106397.  Total volume = 105.2804018655529.  Cell volumes OK.
    Mesh non-orthogonality Max: 22.74891598092847 average: 2.54793458191072
    Non-orthogonality check OK.
    Face pyramids OK.
    Max skewness = 1.432464754648327 OK.
    Coupled point location match (average 0) OK.

Mesh OK.

Time = 1

U Initial residual: (0.0001713741731483738 0.0001237121503533096 0.0009676949856584263)
U   Final residual: (1.498912672577348e-05 1.071675954895384e-05 7.928703806028611e-05)
he Initial residual: 0.000112218372836831
he   Final residual: 8.856888388027511e-06
p Initial residual: 0.001389232763453167
p   Final residual: 9.076804740891677e-05
Time step continuity errors : sum local = 2.818874889364079e-05
                                 global = 2.773491190463266e-06
                             cumulative = -0.004937490698991355
nuTilda Initial residual: 6.448047801662251e-05
nuTilda   Final residual: 6.164184665850646e-06
Bounding nuTilda>1e-16
yPlus min: 100.3941294270767 max: 209.8066740909358 mean: 190.9818211789689
CD-part1-force: 0.009521639713468755
CL-part1-force: 0.4983070173913475
ExecutionTime = 19.42 s  ClockTime = 26 s

Time = 100

U Initial residual: (1.700188436412602e-05 9.054557866516977e-06 0.0001635295105369437)
U   Final residual: (1.327335270851711e-06 7.600712810332006e-07 1.146504648132858e-05)
he Initial residual: 4.761378459494164e-05
he   Final residual: 3.552105376555065e-06
p Initial residual: 2.123301459276899e-05
p   Final residual: 1.097195832556068e-06
Time step continuity errors : sum local = 3.405376977879877e-07
                                 global = -1.3496050345108e-08
                             cumulative = -0.0049375041950417
nuTilda Initial residual: 3.283909316665541e-07
nuTilda   Final residual: 2.873864743737561e-08
Bounding nuTilda>1e-16
yPlus min: 99.97748395332593 max: 717.1955899129247 mean: 475.2936019945562
CD-part1-force: 0.01615152870026826
CL-part1-force: 0.4986904281108622
ExecutionTime = 20.78 s  ClockTime = 27 s

Time = 200

U Initial residual: (4.922087686820003e-07 2.788353896809048e-07 0.0001531608750798416)
U   Final residual: (3.956426405916949e-08 2.182685747433207e-08 1.069843739784583e-05)
he Initial residual: 1.249392686254263e-06
he   Final residual: 9.30837936284406e-08
p Initial residual: 6.663961357536442e-07
p   Final residual: 5.69926350280987e-08
Time step continuity errors : sum local = 1.76832457740912e-08
                                 global = -1.466441295109042e-09
                             cumulative = -0.004937505661482995
nuTilda Initial residual: 6.729602661685582e-09
nuTilda   Final residual: 6.513432910903142e-10
Bounding nuTilda>1e-16
yPlus min: 100.0963658136316 max: 717.1039792010567 mean: 475.3379505914296
CD-part1-force: 0.01617191124464723
CL-part1-force: 0.4984247000686963
ExecutionTime = 22.01 s  ClockTime = 28 s

Time = 300

U Initial residual: (2.447323931449999e-08 1.13133073073353e-08 0.0001539946933890042)
U   Final residual: (1.889843524561747e-09 9.432210800488556e-10 1.055516721420507e-05)
he Initial residual: 6.725975920074247e-08
he   Final residual: 4.768754949809271e-09
p Initial residual: 2.279313967845717e-08
p   Final residual: 1.449771605438997e-09
Time step continuity errors : sum local = 4.498251523061593e-10
                                 global = 6.428326073194274e-11
                             cumulative = -0.004937505597199734
nuTilda Initial residual: 5.543841871085109e-10
nuTilda   Final residual: 4.261716138713007e-11
Bounding nuTilda>1e-16
yPlus min: 100.101016041398 max: 717.0998945993592 mean: 475.3392038794609
CD-part1-force: 0.01617260945486221
CL-part1-force: 0.4984108397324434
ExecutionTime = 23.41 s  ClockTime = 30 s

Time = 353
Minimal residual 9.755479756215267e-09 satisfied the prescribed tolerance 1e-08

CD-part1-force: 0.01617263955250481
CL-part1-force: 0.4984103354199014
Printing Primal Residual Statistics.
U Residual Norm2: (0.02156788931334373 0.02325366919869955 1.989422373748497e-08)
U Residual Mean: (0.0001789147822618383 6.814239323084536e-05 2.015711822108586e-10)
U Residual Max: (0.005025397054851055 0.00886543607339263 2.302838130526386e-09)
p Residual Norm2: 0.0006395577389344561
p Residual Mean: 9.74352802676891e-07
p Residual Max: 0.0002756443562483942
T Residual Norm2: 3.024450279684209
T Residual Mean: 0.02422519014791817
T Residual Max: 0.5627109458470676
nuTilda Residual Norm2: 5.470090171862575e-06
nuTilda Residual Mean: 1.823823923730077e-08
nuTilda Residual Max: 1.071206659458962e-06
phi Residual Norm2: 3.140687875057749e-06
phi Residual Mean: 8.321342768846547e-09
phi Residual Max: 8.11938299858458e-07
End

Setting up primal boundary conditions based on pyOptions: 
Setting primal boundary conditions...
Setting U = (99.6530023320226 8.323408329158191 0) at inout
Setting primal boundary conditions...
Setting p = 101325 at inout
Setting primal boundary conditions...
Setting T = 300 at inout
Setting primal boundary conditions...
Setting nuTilda = 4.5e-05 at inout
Setting nut wall BC for wing. BCType=nutUSpaldingWallFunction
Running Primal Solver 005
Previous solution time 353 found and deleted.
No finite volume options present

Starting time loop

Checking mesh quality for time = 0
    Overall domain bounding box (-17.36955992934097 -18.580929029828 0) (18.72808974732804 18.580929008908 0.1)
    Mesh has 3 geometric (non-empty/wedge) directions 3{1}
    Mesh has 3 solution (non-empty) directions 3{1}
    Boundary openness (-4.00357692004596e-19 1.106679799037094e-19 -3.853013719984887e-16) OK.
    Max cell openness = 2.647572244145361e-16 OK.
    Max aspect ratio = 97.87218721638284 OK.
    Minimum face area = 2.254099143164308e-06. Maximum face area = 4.224820321497278.  Face area magnitudes OK.
    Min volume = 2.254099144856892e-07. Max volume = 0.422482032106397.  Total volume = 105.2804018655529.  Cell volumes OK.
    Mesh non-orthogonality Max: 22.74891598092847 average: 2.54793458191072
    Non-orthogonality check OK.
    Face pyramids OK.
    Max skewness = 1.432464754648327 OK.
    Coupled point location match (average 0) OK.

Mesh OK.

Time = 1

U Initial residual: (0.0002291838995120057 0.0006970041431004442 0.001042734251370414)
U   Final residual: (1.992624186133332e-05 6.561933071088757e-05 9.353616361711274e-05)
he Initial residual: 0.0001680975162387843
he   Final residual: 1.295367986828859e-05
p Initial residual: 0.004223364931927074
p   Final residual: 0.0002823377870191853
Time step continuity errors : sum local = 8.767721042353392e-05
                                 global = -3.202769686581237e-05
                             cumulative = -0.004969533294065546
nuTilda Initial residual: 6.446576148811935e-05
nuTilda   Final residual: 6.166681214451807e-06
Bounding nuTilda>1e-16
yPlus min: 100.3558118241592 max: 209.8049238517206 mean: 190.981308290527
CD-part1-force: 0.009694766114929809
CL-part1-force: 0.498443036016738
ExecutionTime = 24.55 s  ClockTime = 32 s

Time = 100

U Initial residual: (1.485068471171848e-05 7.96689134346236e-06 0.0001505691630985666)
U   Final residual: (1.133106290726929e-06 6.644215689610258e-07 1.049836268419013e-05)
he Initial residual: 4.268951313281352e-05
he   Final residual: 3.110266437432866e-06
p Initial residual: 1.804947566861872e-05
p   Final residual: 1.772239288651029e-06
Time step continuity errors : sum local = 5.508740028550082e-07
                                 global = 1.717776173492048e-11
                             cumulative = -0.004969533276887784
nuTilda Initial residual: 2.487210162591983e-07
nuTilda   Final residual: 1.839904017351413e-08
Bounding nuTilda>1e-16
yPlus min: 99.33001219403243 max: 717.6193804374105 mean: 475.0706947298502
CD-part1-force: 0.01619428571495529
CL-part1-force: 0.5002286042564457
ExecutionTime = 26.1 s  ClockTime = 33 s

Time = 200

U Initial residual: (4.361635425737866e-07 2.481710400477864e-07 0.0001439653558773938)
U   Final residual: (3.367556798477453e-08 1.840380537362901e-08 1.013822210112942e-05)
he Initial residual: 1.094090699147622e-06
he   Final residual: 7.995413421239876e-08
p Initial residual: 7.237205302354793e-07
p   Final residual: 5.313678505980016e-08
Time step continuity errors : sum local = 1.651248951293408e-08
                                 global = -3.152711028115154e-09
                             cumulative = -0.004969536429598812
nuTilda Initial residual: 6.214531052784113e-09
nuTilda   Final residual: 6.076041058724674e-10
Bounding nuTilda>1e-16
yPlus min: 99.42827088661484 max: 717.5420800868912 mean: 475.1083734480233
CD-part1-force: 0.01621179277360785
CL-part1-force: 0.5000074885657106
ExecutionTime = 27.67 s  ClockTime = 35 s

Time = 300

U Initial residual: (2.07417509255991e-08 8.892476672055042e-09 0.0001494677666035369)
U   Final residual: (1.564836230597378e-09 7.545584754662546e-10 1.030880470170211e-05)
he Initial residual: 5.919771058322485e-08
he   Final residual: 4.054397697852387e-09
p Initial residual: 1.976913885161555e-08
p   Final residual: 1.872476372915264e-09
Time step continuity errors : sum local = 5.818847633532128e-10
                                 global = -7.284713917602512e-11
                             cumulative = -0.004969536502445951
nuTilda Initial residual: 5.327553674607573e-10
nuTilda   Final residual: 3.880877123227793e-11
Bounding nuTilda>1e-16
yPlus min: 99.43186065942984 max: 717.5385097832185 mean: 475.1093953273034
CD-part1-force: 0.01621238801660629
CL-part1-force: 0.4999958208653368
ExecutionTime = 28.94 s  ClockTime = 36 s

Time = 348
Minimal residual 9.816461855863244e-09 satisfied the prescribed tolerance 1e-08

CD-part1-force: 0.01621241280120689
CL-part1-force: 0.4999954047844142
Printing Primal Residual Statistics.
U Residual Norm2: (0.02196031193772938 0.02338809974648217 2.144599340672707e-08)
U Residual Mean: (0.0001810747309819487 6.944961086542024e-05 2.06629921019425e-10)
U Residual Max: (0.005033812543842942 0.008897391729988158 3.230492449025183e-09)
p Residual Norm2: 0.0006443720500175448
p Residual Mean: 9.786873206678332e-07
p Residual Max: 0.0002780951390102448
T Residual Norm2: 3.175359250494261
T Residual Mean: 0.02513931323962434
T Residual Max: 0.6060088431632781
nuTilda Residual Norm2: 5.591101066511091e-06
nuTilda Residual Mean: 1.866934107357325e-08
nuTilda Residual Max: 1.093824987315377e-06
phi Residual Norm2: 3.214884187169118e-06
phi Residual Mean: 8.518093276531522e-09
phi Residual Max: 8.293065243498692e-07
End

FindFeasibleDesign Iter:  2
DesignVars:  [4.77448541383766]
Constraints:  [0.4999954047850395]
Residual Norm:  9.190429921090981e-06
FindFeasibleDesign Converged! 
Driver debug print for iter coord: rank0:pyOptSparse_IPOPT|0
------------------------------------------------------------
Design Vars
{'dvs.aoa': array([4.77448541383766]),
 'dvs.shape': array([0., 0., 0., 0., 0., 0., 0., 0., 0., 0., 0., 0., 0., 0., 0., 0., 0.,
       0., 0., 0.])}

Setting up primal boundary conditions based on pyOptions: 
Setting primal boundary conditions...
Setting U = (99.6530023320226 8.323408329158191 0) at inout
Setting primal boundary conditions...
Setting p = 101325 at inout
Setting primal boundary conditions...
Setting T = 300 at inout
Setting primal boundary conditions...
Setting nuTilda = 4.5e-05 at inout
Setting nut wall BC for wing. BCType=nutUSpaldingWallFunction
Running Primal Solver 006
Previous solution time 348 found and deleted.
No finite volume options present

Starting time loop

Checking mesh quality for time = 0
    Overall domain bounding box (-17.36955992934097 -18.580929029828 0) (18.72808974732804 18.580929008908 0.1)
    Mesh has 3 geometric (non-empty/wedge) directions 3{1}
    Mesh has 3 solution (non-empty) directions 3{1}
    Boundary openness (-4.00357692004596e-19 1.106679799037094e-19 -3.853013719984887e-16) OK.
    Max cell openness = 2.647572244145361e-16 OK.
    Max aspect ratio = 97.87218721638284 OK.
    Minimum face area = 2.254099143164308e-06. Maximum face area = 4.224820321497278.  Face area magnitudes OK.
    Min volume = 2.254099144856892e-07. Max volume = 0.422482032106397.  Total volume = 105.2804018655529.  Cell volumes OK.
    Mesh non-orthogonality Max: 22.74891598092847 average: 2.54793458191072
    Non-orthogonality check OK.
    Face pyramids OK.
    Max skewness = 1.432464754648327 OK.
    Coupled point location match (average 0) OK.

Mesh OK.

Time = 1

U Initial residual: (0.0001674301376032668 8.692220668045421e-05 0.0009545409874663497)
U   Final residual: (1.461908968632151e-05 7.181601471802515e-06 7.965984849858783e-05)
he Initial residual: 0.0001089907955843711
he   Final residual: 8.564473984021597e-06
p Initial residual: 0.001201844490855195
p   Final residual: 0.0001063145907687628
Time step continuity errors : sum local = 3.307151371851458e-05
                                 global = -3.591147632592859e-06
                             cumulative = -0.004973127650078544
nuTilda Initial residual: 6.435466946398132e-05
nuTilda   Final residual: 6.150865705731113e-06
Bounding nuTilda>1e-16
yPlus min: 99.68643690624815 max: 209.7689127221498 mean: 190.9737116375741
CD-part1-force: 0.009592631246117422
CL-part1-force: 0.5000159803055553
ExecutionTime = 30.05 s  ClockTime = 38 s

Time = 100

U Initial residual: (1.719732396261121e-05 9.154174620704748e-06 0.0001521082908930674)
U   Final residual: (1.345325200548714e-06 7.680787991447781e-07 1.058480564719609e-05)
he Initial residual: 4.811784006369589e-05
he   Final residual: 3.59687219083034e-06
p Initial residual: 2.122367690828164e-05
p   Final residual: 1.063963990618875e-06
Time step continuity errors : sum local = 3.307382869034289e-07
                                 global = -1.445416113297959e-08
                             cumulative = -0.004973142104239677
nuTilda Initial residual: 3.391930768556843e-07
nuTilda   Final residual: 2.884963398500915e-08
Bounding nuTilda>1e-16
yPlus min: 99.30876269310906 max: 717.6355810947149 mean: 475.0626525305966
CD-part1-force: 0.01619089266188389
CL-part1-force: 0.5002789453305816
ExecutionTime = 31.38 s  ClockTime = 40 s

Time = 200

U Initial residual: (4.956588873080318e-07 2.811956926032948e-07 0.000149554385247236)
U   Final residual: (3.996082574890223e-08 2.207429403539542e-08 1.067632634031484e-05)
he Initial residual: 1.261292389653652e-06
he   Final residual: 9.390690110075534e-08
p Initial residual: 6.658271808469679e-07
p   Final residual: 5.944948474277515e-08
Time step continuity errors : sum local = 1.847424454007282e-08
                                 global = -1.454491233354569e-09
                             cumulative = -0.00497314355873091
nuTilda Initial residual: 6.853104960751485e-09
nuTilda   Final residual: 6.621057122972544e-10
Bounding nuTilda>1e-16
yPlus min: 99.42718929844868 max: 717.5426554659733 mean: 475.108097228432
CD-part1-force: 0.01621167272125312
CL-part1-force: 0.5000098678499398
ExecutionTime = 32.72 s  ClockTime = 41 s

Time = 300

U Initial residual: (2.466645088673107e-08 1.150551736120548e-08 0.0001486203903082065)
U   Final residual: (1.910197553450662e-09 9.583235066000763e-10 1.042162240272969e-05)
he Initial residual: 6.764242478063462e-08
he   Final residual: 4.810769873203415e-09
p Initial residual: 2.306077887565314e-08
p   Final residual: 1.473775533957138e-09
Time step continuity errors : sum local = 4.579802776629249e-10
                                 global = 6.495427915847571e-11
                             cumulative = -0.004973143493776631
nuTilda Initial residual: 5.559945199974321e-10
nuTilda   Final residual: 4.290876324709006e-11
Bounding nuTilda>1e-16
yPlus min: 99.43182149338278 max: 717.5385367778844 mean: 475.1093843585916
CD-part1-force: 0.01621238216265808
CL-part1-force: 0.4999959130512899
ExecutionTime = 34.17 s  ClockTime = 43 s

Time = 353
Minimal residual 9.81592269841951e-09 satisfied the prescribed tolerance 1e-08

CD-part1-force: 0.01621241275637098
CL-part1-force: 0.4999954033218899
Printing Primal Residual Statistics.
U Residual Norm2: (0.02177187178588386 0.0234788331217846 2.443482732154329e-08)
U Residual Mean: (0.0001804646937690047 6.867169456967343e-05 2.522856403940513e-10)
U Residual Max: (0.005077718640677631 0.008967565954662859 4.752549923502309e-09)
p Residual Norm2: 0.0006456043364620638
p Residual Mean: 9.844442442917565e-07
p Residual Max: 0.000278297974968395
T Residual Norm2: 3.06822380013587
T Residual Mean: 0.02453106592411155
T Residual Max: 0.574861323295717
nuTilda Residual Norm2: 5.595212499084442e-06
nuTilda Residual Mean: 1.862669000858685e-08
nuTilda Residual Max: 1.097090650333477e-06
phi Residual Norm2: 3.168232027970772e-06
phi Residual Mean: 8.391656015238071e-09
phi Residual Max: 8.152528671763097e-07
End

Nonlinear constraints
{'cruise.aero_post.functionals.CL': array([0.4999954033224974]),
 'geometry.thickcon': array([1.0000000000000209, 1.                , 1.                ,
       1.0000000000000002, 1.0000000000000002, 1.                ,
       0.9999999999999998, 0.9999999999999999, 0.9999999999999998,
       1.000000000000003 , 1.0000000000000224, 0.9999999999999999,
       1.0000000000000004, 0.9999999999999999, 1.0000000000000002,
       1.                , 0.9999999999999997, 1.                ,
       0.9999999999999998, 0.9999999999999984]),
 'geometry.volcon': array([1.0000000000001716])}

Objectives
{'cruise.aero_post.functionals.CD': array([0.0162124127569858])}

Computing partials for  ['CD']
Calculating dFdW using reverse-mode AD
Calculating dFdXv using reverse-mode AD


+--------------------------------------------------------------------------+
|                       Running Coloring Solver                            |
+--------------------------------------------------------------------------+
I/O    : uncollated
Case   : /home/dafoamuser/mount
nProcs : 4
Hosts  :
(
    (27084c93db99 4)
)
Pstream initialized with:
    floatTransfer      : 0
    nProcsSimpleSum    : 0
    commsType          : nonBlocking
    polling iterations : 0
Create time

Overriding DebugSwitches according to controlDict
    SolverPerformance 0;

Create mesh for time = 0
Selecting thermodynamics package 
{
    mixture         pureMixture;
    specie          specie;
    equationOfState perfectGas;
    energy          sensibleInternalEnergy;
    thermo          hConst;
    type            hePsiThermo;
    transport       const;
}

Selecting turbulence model type RAS
Selecting RAS turbulence model SpalartAllmaras
Selecting patchDistMethod meshWaveFrozen
Checking if Coloring file exists..
dRdWCon Created. 3 s
Calculating dRdW Coloring... 3 s
Calculating dRdW Coloring..
Parallel Distance 2 Graph Coloring....
MaxCols: 142
AllNonZeros: 3393269
nUniqueCols: 11491
ColorSweep: 0   4 s
number of uncolored: 34956 4
ColorSweep: 100   5 s
number of uncolored: 22289 4
ColorSweep: 200   7 s
number of uncolored: 11006 4
ColorSweep: 300   8 s
number of uncolored: 1239 4
ColorSweep: 341   9 s
number of uncolored: 0 0
Global ColorSweep: 0   9 s
Number of Uncolored: 5397 4
Global ColorSweep: 100   11 s
Number of Uncolored: 4450 4
Global ColorSweep: 200   12 s
Number of Uncolored: 3274 4
Global ColorSweep: 300   14 s
Number of Uncolored: 1700 4
Global ColorSweep: 400   15 s
Number of Uncolored: 70 4
Global ColorSweep: 424   16 s
Number of Uncolored: 0 0
Ncolors: 425
Validating Coloring...
No Conflicting Colors Found!
 nJacConColors: 425
Writing Colors to dRdWColoring_4
Calculating dRdW Coloring... Completed! 16 s
Checking if Coloring file exists..
    Adding all faces of patches 1(wing) ...
    Found matching patch wing with 32 faces.
dFdWCon Created!
Setting up dFdWCon..
dFdWCon Created. 16 s
Calculating dFdW CD-part1 Coloring... 16 s
Calculating dFdW Coloring..
Parallel Distance 2 Graph Coloring....
MaxCols: 15
AllNonZeros: 1890
nUniqueCols: 294
ColorSweep: 0   16 s
number of uncolored: 1023 4
ColorSweep: 28   16 s
number of uncolored: 0 0
Global ColorSweep: 0   16 s
Number of Uncolored: 24 4
Global ColorSweep: 21   16 s
Number of Uncolored: 0 0
Ncolors: 29
Validating Coloring...
No Conflicting Colors Found!
 nJacConColors: 29
Writing Colors to dFdWColoring_CD_part1_4
Calculating dFdW CD-part1 Coloring... Completed16 s
Checking if Coloring file exists..
    Adding all faces of patches 1(wing) ...
    Found matching patch wing with 32 faces.
dFdWCon Created!
Setting up dFdWCon..
dFdWCon Created. 16 s
Calculating dFdW CL-part1 Coloring... 16 s
Calculating dFdW Coloring..
Parallel Distance 2 Graph Coloring....
MaxCols: 15
AllNonZeros: 1890
nUniqueCols: 294
ColorSweep: 0   16 s
number of uncolored: 1023 4
ColorSweep: 28   16 s
number of uncolored: 0 0
Global ColorSweep: 0   16 s
Number of Uncolored: 24 4
Global ColorSweep: 21   16 s
Number of Uncolored: 0 0
Ncolors: 29
Validating Coloring...
No Conflicting Colors Found!
 nJacConColors: 29
Writing Colors to dFdWColoring_CL_part1_4
Calculating dFdW CL-part1 Coloring... Completed16 s
Finalising parallel run
I/O    : uncollated
Moving time 353 to 0.0001
Driver total derivatives for iteration: 1
---------------------------------------------
Computing dRdWTPC 61 s
Initializing dRdWCon. 61 s
dRdWCon Created. 63 s
Reading Coloring dRdWColoring_4
Validating Coloring...
No Conflicting Colors Found!
Partial derivative matrix created. 63 s
dRdWTPC: 0 of 425, ExecutionTime: 63 s
dRdWTPC: 100 of 425, ExecutionTime: 66 s
dRdWTPC: 200 of 425, ExecutionTime: 68 s
dRdWTPC: 300 of 425, ExecutionTime: 70 s
dRdWTPC: 400 of 425, ExecutionTime: 72 s
dRdWTPC: 424 of 425, ExecutionTime: 73 s
Solver Type: gmres
GMRES Restart: 1000
ASM Overlap: 1
Global PC Iters: 0
Local PC Iters: 1
Mat ReOrdering: rcm
ILU PC Fill Level: 1
GMRES Max Iterations: 1000
GMRES Relative Tolerance: 1e-06
GMRES Absolute Tolerance: 1e-14
Calculating [dRdW]^T * Psi using reverse-mode AD
Solving Linear Equation... 73 s
Main iteration 0 KSP Residual norm 5.414624836500e-01 73 s
Main iteration 100 KSP Residual norm 4.918278562994e-05 81 s
Main iteration 149 KSP Residual norm 5.057246168057e-07 85 s 
Total iterations 149
Solving Linear Equation... Completed! 85 s
Residual tolerance satisfied, solution finished!
Calculating [dRdAOA]^T * Psi using reverse-mode AD
Calculating [dRdXv]^T * Psi using reverse-mode AD
Computing partials for  ['CL']
Calculating dFdW using reverse-mode AD
Calculating dFdXv using reverse-mode AD
Latest solution time 0.0001 less than 1, not renamed.
Calculating [dRdW]^T * Psi using reverse-mode AD
Solving Linear Equation... 87 s
Main iteration 0 KSP Residual norm 3.362104489491e+00 87 s
Main iteration 100 KSP Residual norm 5.451098432662e-04 95 s
Main iteration 159 KSP Residual norm 3.233924214033e-06 99 s 
Total iterations 159
Solving Linear Equation... Completed! 99 s
Residual tolerance satisfied, solution finished!
Calculating [dRdAOA]^T * Psi using reverse-mode AD
Calculating [dRdXv]^T * Psi using reverse-mode AD


Optimization Problem -- Optimization using pyOpt_sparse
================================================================================
    Objective Function: _objfunc


   Objectives
      Index  Name                                       Value
          0  cruise.aero_post.functionals.CD     0.000000E+00

   Variables (c - continuous, i - integer, d - discrete)
      Index  Name           Type      Lower Bound            Value      Upper Bound     Status
          0  dvs.shape_0       c    -1.000000E+00     0.000000E+00     1.000000E+00           
          1  dvs.shape_1       c    -1.000000E+00     0.000000E+00     1.000000E+00           
          2  dvs.shape_2       c    -1.000000E+00     0.000000E+00     1.000000E+00           
          3  dvs.shape_3       c    -1.000000E+00     0.000000E+00     1.000000E+00           
          4  dvs.shape_4       c    -1.000000E+00     0.000000E+00     1.000000E+00           
          5  dvs.shape_5       c    -1.000000E+00     0.000000E+00     1.000000E+00           
          6  dvs.shape_6       c    -1.000000E+00     0.000000E+00     1.000000E+00           
          7  dvs.shape_7       c    -1.000000E+00     0.000000E+00     1.000000E+00           
          8  dvs.shape_8       c    -1.000000E+00     0.000000E+00     1.000000E+00           
          9  dvs.shape_9       c    -1.000000E+00     0.000000E+00     1.000000E+00           
         10  dvs.shape_10      c    -1.000000E+00     0.000000E+00     1.000000E+00           
         11  dvs.shape_11      c    -1.000000E+00     0.000000E+00     1.000000E+00           
         12  dvs.shape_12      c    -1.000000E+00     0.000000E+00     1.000000E+00           
         13  dvs.shape_13      c    -1.000000E+00     0.000000E+00     1.000000E+00           
         14  dvs.shape_14      c    -1.000000E+00     0.000000E+00     1.000000E+00           
         15  dvs.shape_15      c    -1.000000E+00     0.000000E+00     1.000000E+00           
         16  dvs.shape_16      c    -1.000000E+00     0.000000E+00     1.000000E+00           
         17  dvs.shape_17      c    -1.000000E+00     0.000000E+00     1.000000E+00           
         18  dvs.shape_18      c    -1.000000E+00     0.000000E+00     1.000000E+00           
         19  dvs.shape_19      c    -1.000000E+00     0.000000E+00     1.000000E+00           
         20  dvs.aoa_0         c     0.000000E+00     4.774485E+00     1.000000E+01           

   Constraints (i - inequality, e - equality)
      Index  Name                            Type          Lower           Value           Upper    Status  Lagrange Multiplier (N/A)
          0  cruise.aero_post.functionals.CL    e   5.000000E-01    0.000000E+00    5.000000E-01         E    9.00000E+100
          1  geometry.tecon                     e   0.000000E+00    0.000000E+00    0.000000E+00              9.00000E+100
          2  geometry.tecon                     e   0.000000E+00    0.000000E+00    0.000000E+00              9.00000E+100
          3  geometry.lecon                     e   0.000000E+00    0.000000E+00    0.000000E+00              9.00000E+100
          4  geometry.lecon                     e   0.000000E+00    0.000000E+00    0.000000E+00              9.00000E+100
          5  geometry.linearcon                 e   0.000000E+00    0.000000E+00    0.000000E+00              9.00000E+100
          6  geometry.linearcon                 e   0.000000E+00    0.000000E+00    0.000000E+00              9.00000E+100
          7  geometry.linearcon                 e   0.000000E+00    0.000000E+00    0.000000E+00              9.00000E+100
          8  geometry.linearcon                 e   0.000000E+00    0.000000E+00    0.000000E+00              9.00000E+100
          9  geometry.linearcon                 e   0.000000E+00    0.000000E+00    0.000000E+00              9.00000E+100
         10  geometry.linearcon                 e   0.000000E+00    0.000000E+00    0.000000E+00              9.00000E+100
         11  geometry.linearcon                 e   0.000000E+00    0.000000E+00    0.000000E+00              9.00000E+100
         12  geometry.linearcon                 e   0.000000E+00    0.000000E+00    0.000000E+00              9.00000E+100
         13  geometry.linearcon                 e   0.000000E+00    0.000000E+00    0.000000E+00              9.00000E+100
         14  geometry.linearcon                 e   0.000000E+00    0.000000E+00    0.000000E+00              9.00000E+100
         15  geometry.thickcon                  i   5.000000E-01    0.000000E+00    3.000000E+00         L    9.00000E+100
         16  geometry.thickcon                  i   5.000000E-01    0.000000E+00    3.000000E+00         L    9.00000E+100
         17  geometry.thickcon                  i   5.000000E-01    0.000000E+00    3.000000E+00         L    9.00000E+100
         18  geometry.thickcon                  i   5.000000E-01    0.000000E+00    3.000000E+00         L    9.00000E+100
         19  geometry.thickcon                  i   5.000000E-01    0.000000E+00    3.000000E+00         L    9.00000E+100
         20  geometry.thickcon                  i   5.000000E-01    0.000000E+00    3.000000E+00         L    9.00000E+100
         21  geometry.thickcon                  i   5.000000E-01    0.000000E+00    3.000000E+00         L    9.00000E+100
         22  geometry.thickcon                  i   5.000000E-01    0.000000E+00    3.000000E+00         L    9.00000E+100
         23  geometry.thickcon                  i   5.000000E-01    0.000000E+00    3.000000E+00         L    9.00000E+100
         24  geometry.thickcon                  i   5.000000E-01    0.000000E+00    3.000000E+00         L    9.00000E+100
         25  geometry.thickcon                  i   5.000000E-01    0.000000E+00    3.000000E+00         L    9.00000E+100
         26  geometry.thickcon                  i   5.000000E-01    0.000000E+00    3.000000E+00         L    9.00000E+100
         27  geometry.thickcon                  i   5.000000E-01    0.000000E+00    3.000000E+00         L    9.00000E+100
         28  geometry.thickcon                  i   5.000000E-01    0.000000E+00    3.000000E+00         L    9.00000E+100
         29  geometry.thickcon                  i   5.000000E-01    0.000000E+00    3.000000E+00         L    9.00000E+100
         30  geometry.thickcon                  i   5.000000E-01    0.000000E+00    3.000000E+00         L    9.00000E+100
         31  geometry.thickcon                  i   5.000000E-01    0.000000E+00    3.000000E+00         L    9.00000E+100
         32  geometry.thickcon                  i   5.000000E-01    0.000000E+00    3.000000E+00         L    9.00000E+100
         33  geometry.thickcon                  i   5.000000E-01    0.000000E+00    3.000000E+00         L    9.00000E+100
         34  geometry.thickcon                  i   5.000000E-01    0.000000E+00    3.000000E+00         L    9.00000E+100
         35  geometry.volcon                    i   1.000000E+00    0.000000E+00    1.000000E+30         L    9.00000E+100


List of user-set options:

                                    Name   Value                used
                             alpha_for_y = full                  yes
                         constr_viol_tol = 1e-05                 yes
                        file_print_level = 5                     yes
                   hessian_approximation = limited-memory        yes
              limited_memory_max_history = 10                    yes
                           linear_solver = mumps                 yes
                                max_iter = 100                   yes
                             mu_strategy = adaptive              yes
                      nlp_scaling_method = none                  yes
                             output_file = opt_IPOPT.txt         yes
                             print_level = 5                     yes
                      print_user_options = yes                   yes
                                recalc_y = yes                   yes
                                      sb = yes                   yes
                                     tol = 1e-05                 yes
This is Ipopt version 3.13.5, running with linear solver mumps.
NOTE: Other linear solvers might be more efficient (see Ipopt documentation).

Number of nonzeros in equality constraint Jacobian...:       49
Number of nonzeros in inequality constraint Jacobian.:      420
Number of nonzeros in Lagrangian Hessian.............:        0

Driver debug print for iter coord: rank0:pyOptSparse_IPOPT|1
------------------------------------------------------------
Design Vars
{'dvs.aoa': array([4.77448541383766]),
 'dvs.shape': array([0., 0., 0., 0., 0., 0., 0., 0., 0., 0., 0., 0., 0., 0., 0., 0., 0.,
       0., 0., 0.])}

Setting up primal boundary conditions based on pyOptions: 
Setting primal boundary conditions...
Setting U = (99.6530023320226 8.323408329158191 0) at inout
Setting primal boundary conditions...
Setting p = 101325 at inout
Setting primal boundary conditions...
Setting T = 300 at inout
Setting primal boundary conditions...
Setting nuTilda = 4.5e-05 at inout
Setting nut wall BC for wing. BCType=nutUSpaldingWallFunction
Running Primal Solver 007
Previous solution time 353 not found and nothing deleted.
No finite volume options present

Starting time loop

Checking mesh quality for time = 0
    Overall domain bounding box (-17.36955992934097 -18.580929029828 0) (18.72808974732804 18.580929008908 0.1)
    Mesh has 3 geometric (non-empty/wedge) directions 3{1}
    Mesh has 3 solution (non-empty) directions 3{1}
    Boundary openness (-4.00357692004596e-19 1.106679799037094e-19 -3.853013719984887e-16) OK.
    Max cell openness = 2.647572244145361e-16 OK.
    Max aspect ratio = 97.87218721638284 OK.
    Minimum face area = 2.254099143164308e-06. Maximum face area = 4.224820321497278.  Face area magnitudes OK.
    Min volume = 2.254099144856892e-07. Max volume = 0.422482032106397.  Total volume = 105.2804018655529.  Cell volumes OK.
    Mesh non-orthogonality Max: 22.74891598092847 average: 2.54793458191072
    Non-orthogonality check OK.
    Face pyramids OK.
    Max skewness = 1.432464754648327 OK.
    Coupled point location match (average 0) OK.

Mesh OK.

Time = 1

U Initial residual: (0.000167430146958755 8.692220581028227e-05 0.0009536010303173225)
U   Final residual: (1.461909095637231e-05 7.181601852092416e-06 7.937109162429432e-05)
he Initial residual: 0.0001089908127625407
he   Final residual: 8.56447510876928e-06
p Initial residual: 0.001201844453385366
p   Final residual: 0.0001171621877439613
Time step continuity errors : sum local = 3.644589957002945e-05
                                 global = -5.99947909889589e-06
                             cumulative = -0.004979142972875526
nuTilda Initial residual: 6.435705194293641e-05
nuTilda   Final residual: 6.15522629820928e-06
Bounding nuTilda>1e-16
yPlus min: 99.69167798568928 max: 209.7688240581827 mean: 190.9736582665437
CD-part1-force: 0.009555714503724611
CL-part1-force: 0.499959280291371
ExecutionTime = 91.78 s  ClockTime = 103 s

Time = 100

U Initial residual: (1.725345595143837e-05 9.20176669428659e-06 0.0001526847383585056)
U   Final residual: (1.352771102872183e-06 7.738693206365763e-07 1.052210266410663e-05)
he Initial residual: 4.812299820368795e-05
he   Final residual: 3.60383900093289e-06
p Initial residual: 2.084498692789196e-05
p   Final residual: 1.33990057001744e-06
Time step continuity errors : sum local = 4.165146829256885e-07
                                 global = -1.26442748202718e-08
                             cumulative = -0.004979155617150346
nuTilda Initial residual: 3.396588935738046e-07
nuTilda   Final residual: 2.822570007825787e-08
Bounding nuTilda>1e-16
yPlus min: 99.30787649870659 max: 717.6361586750032 mean: 475.0619788386459
CD-part1-force: 0.01619075713078932
CL-part1-force: 0.500280767445382
ExecutionTime = 93.31 s  ClockTime = 104 s

Time = 200

U Initial residual: (4.964059258201963e-07 2.80404867190229e-07 0.000150906475930894)
U   Final residual: (3.98164839726731e-08 2.192451574515896e-08 1.044286000138695e-05)
he Initial residual: 1.263214136483531e-06
he   Final residual: 9.437407633322739e-08
p Initial residual: 6.688735768983413e-07
p   Final residual: 5.833796330645707e-08
Time step continuity errors : sum local = 1.812885058051506e-08
                                 global = -2.996445061836428e-09
                             cumulative = -0.004979158613595408
nuTilda Initial residual: 7.042754745006136e-09
nuTilda   Final residual: 6.765569095449702e-10
Bounding nuTilda>1e-16
yPlus min: 99.42719071303887 max: 717.5426558644643 mean: 475.1080769330591
CD-part1-force: 0.01621167521029743
CL-part1-force: 0.5000099938141673
ExecutionTime = 94.97 s  ClockTime = 106 s

Time = 300

U Initial residual: (2.459751824515076e-08 1.143426198916878e-08 0.0001476835368034001)
U   Final residual: (1.901474198960407e-09 9.51808756428373e-10 1.040121424822864e-05)
he Initial residual: 6.752970729945651e-08
he   Final residual: 4.800155370789207e-09
p Initial residual: 2.338993676785708e-08
p   Final residual: 1.953176525566372e-09
Time step continuity errors : sum local = 6.069464504916975e-10
                                 global = 1.305754878199193e-10
                             cumulative = -0.00497915848301992
nuTilda Initial residual: 5.648604352971539e-10
nuTilda   Final residual: 4.313702711522524e-11
Bounding nuTilda>1e-16
yPlus min: 99.43182243695028 max: 717.5385357772437 mean: 475.1093837776962
CD-part1-force: 0.01621238221856536
CL-part1-force: 0.4999959067551956
ExecutionTime = 96.41 s  ClockTime = 107 s

Time = 353
Minimal residual 9.756051461562685e-09 satisfied the prescribed tolerance 1e-08

CD-part1-force: 0.01621241284054764
CL-part1-force: 0.4999954032901783
Printing Primal Residual Statistics.
U Residual Norm2: (0.02146500412226777 0.02307197437245795 1.298012393301967e-08)
U Residual Mean: (0.0001792926949175366 6.858417720882293e-05 1.469145960459193e-10)
U Residual Max: (0.00498428480932489 0.008807024685665965 1.406870220255075e-09)
p Residual Norm2: 0.0006381729209064878
p Residual Mean: 9.742318674270672e-07
p Residual Max: 0.000274434623657775
T Residual Norm2: 3.057113362999432
T Residual Mean: 0.02434359320317327
T Residual Max: 0.5548217735748447
nuTilda Residual Norm2: 5.621308745692038e-06
nuTilda Residual Mean: 1.872447996900402e-08
nuTilda Residual Max: 1.102104392039454e-06
phi Residual Norm2: 3.14136144420979e-06
phi Residual Mean: 8.383098765025235e-09
phi Residual Max: 7.893813324671156e-07
End

Nonlinear constraints
{'cruise.aero_post.functionals.CL': array([0.4999954032907645]),
 'geometry.thickcon': array([1.0000000000000209, 1.                , 1.                ,
       1.0000000000000002, 1.0000000000000002, 1.                ,
       0.9999999999999998, 0.9999999999999999, 0.9999999999999998,
       1.000000000000003 , 1.0000000000000224, 0.9999999999999999,
       1.0000000000000004, 0.9999999999999999, 1.0000000000000002,
       1.                , 0.9999999999999997, 1.                ,
       0.9999999999999998, 0.9999999999999984]),
 'geometry.volcon': array([1.0000000000001716])}

Objectives
{'cruise.aero_post.functionals.CD': array([0.0162124128411285])}

Computing partials for  ['CD']
Calculating dFdW using reverse-mode AD
Calculating dFdXv using reverse-mode AD
Moving time 353 to 0.0002
Driver total derivatives for iteration: 2
---------------------------------------------
Calculating [dRdW]^T * Psi using reverse-mode AD
Solving Linear Equation... 109 s
Main iteration 0 KSP Residual norm 5.414624836503e-01 109 s
Main iteration 100 KSP Residual norm 4.918278541528e-05 117 s
Main iteration 149 KSP Residual norm 5.057246118318e-07 121 s 
Total iterations 149
Solving Linear Equation... Completed! 121 s
Residual tolerance satisfied, solution finished!
Calculating [dRdAOA]^T * Psi using reverse-mode AD
Calculating [dRdXv]^T * Psi using reverse-mode AD
Computing partials for  ['CL']
Calculating dFdW using reverse-mode AD
Calculating dFdXv using reverse-mode AD
Latest solution time 0.0002 less than 1, not renamed.
Calculating [dRdW]^T * Psi using reverse-mode AD
Solving Linear Equation... 123 s
Main iteration 0 KSP Residual norm 3.362104489491e+00 123 s
Main iteration 100 KSP Residual norm 5.451098425450e-04 130 s
Main iteration 159 KSP Residual norm 3.233924281211e-06 135 s 
Total iterations 159
Solving Linear Equation... Completed! 135 s
Residual tolerance satisfied, solution finished!
Calculating [dRdAOA]^T * Psi using reverse-mode AD
Calculating [dRdXv]^T * Psi using reverse-mode AD
Total number of variables............................:       21
                     variables with only lower bounds:        0
                variables with lower and upper bounds:       21
                     variables with only upper bounds:        0
Total number of equality constraints.................:       15
Total number of inequality constraints...............:       21
        inequality constraints with only lower bounds:        1
   inequality constraints with lower and upper bounds:       20
        inequality constraints with only upper bounds:        0

iter    objective    inf_pr   inf_du lg(mu)  ||d||  lg(rg) alpha_du alpha_pr  ls
   0  1.6212413e-02 4.60e-06 8.57e-02   0.0 0.00e+00    -  0.00e+00 0.00e+00   0
Driver debug print for iter coord: rank0:pyOptSparse_IPOPT|2
------------------------------------------------------------
Design Vars
{'dvs.aoa': array([4.77336687140319]),
 'dvs.shape': array([ 0.                ,  0.                , -0.                ,
        0.                ,  0.0045425844092673,  0.0045425844092673,
        0.0065972531208214,  0.0065972531208214,  0.0002259781904493,
        0.0002259781904493,  0.0008175856703605,  0.0008175856703605,
       -0.002836701599382 , -0.002836701599382 , -0.0019422454881008,
       -0.0019422454881008,  0.                ,  0.                ,
        0.                ,  0.                ])}

[...]
Calculating [dRdAOA]^T * Psi using reverse-mode AD
Calculating [dRdXv]^T * Psi using reverse-mode AD
Computing partials for  ['CL']
Calculating dFdW using reverse-mode AD
Calculating dFdXv using reverse-mode AD
Latest solution time 0.0019 less than 1, not renamed.
Calculating [dRdW]^T * Psi using reverse-mode AD
Solving Linear Equation... 1167 s
Main iteration 0 KSP Residual norm 3.373366773452e+00 1167 s
Main iteration 100 KSP Residual norm 5.000249363295e-04 1178 s
Main iteration 156 KSP Residual norm 3.140776508730e-06 1184 s 
Total iterations 156
Solving Linear Equation... Completed! 1184 s
Residual tolerance satisfied, solution finished!
Calculating [dRdAOA]^T * Psi using reverse-mode AD
Calculating [dRdXv]^T * Psi using reverse-mode AD
  17  1.3112860e-02 8.64e-08 1.34e-06 -11.0 7.86e-03    -  1.00e+00 1.00e+00h  1

Number of Iterations....: 17

                                   (scaled)                 (unscaled)
Objective...............:   1.3112860464050580e-02    1.3112860464050580e-02
Dual infeasibility......:   1.3403757238344831e-06    1.3403757238344831e-06
Constraint violation....:   8.6384336128730865e-08    8.6384336128730865e-08
Complementarity.........:   1.0017635864106732e-11    1.0017635864106732e-11
Overall NLP error.......:   1.3403757238344831e-06    1.3403757238344831e-06


Number of objective function evaluations             = 23
Number of objective gradient evaluations             = 18
Number of equality constraint evaluations            = 25
Number of inequality constraint evaluations          = 23
Number of equality constraint Jacobian evaluations   = 18
Number of inequality constraint Jacobian evaluations = 18
Number of Lagrangian Hessian evaluations             = 0
Total CPU secs in IPOPT (w/o function evaluations)   =      0.070
Total CPU secs in NLP function evaluations           =   1026.384

EXIT: Optimal Solution Found.


Optimization Problem -- Optimization using pyOpt_sparse
================================================================================
    Objective Function: _objfunc

    Solution: 
--------------------------------------------------------------------------------
    Total Time:                 1085.7311
       User Objective Time :     399.7596
       User Sensitivity Time :   682.4511
       Interface Time :            3.3608
       Opt Solver Time:            0.1597
    Calls to Objective Function :      25
    Calls to Sens Function :           18


   Objectives
      Index  Name                                       Value
          0  cruise.aero_post.functionals.CD     1.311286E-02

   Variables (c - continuous, i - integer, d - discrete)
      Index  Name           Type      Lower Bound            Value      Upper Bound     Status
          0  dvs.shape_0       c    -1.000000E+00     2.053654E-27     1.000000E+00           
          1  dvs.shape_1       c    -1.000000E+00     2.030112E-27     1.000000E+00           
          2  dvs.shape_2       c    -1.000000E+00    -7.384640E-26     1.000000E+00           
          3  dvs.shape_3       c    -1.000000E+00     7.384640E-26     1.000000E+00           
          4  dvs.shape_4       c    -1.000000E+00     2.274800E-02     1.000000E+00           
          5  dvs.shape_5       c    -1.000000E+00     2.274800E-02     1.000000E+00           
          6  dvs.shape_6       c    -1.000000E+00     4.166928E-02     1.000000E+00           
          7  dvs.shape_7       c    -1.000000E+00     4.166928E-02     1.000000E+00           
          8  dvs.shape_8       c    -1.000000E+00     2.993650E-02     1.000000E+00           
          9  dvs.shape_9       c    -1.000000E+00     2.993650E-02     1.000000E+00           
         10  dvs.shape_10      c    -1.000000E+00     3.921692E-02     1.000000E+00           
         11  dvs.shape_11      c    -1.000000E+00     3.921692E-02     1.000000E+00           
         12  dvs.shape_12      c    -1.000000E+00     5.269061E-02     1.000000E+00           
         13  dvs.shape_13      c    -1.000000E+00     5.269061E-02     1.000000E+00           
         14  dvs.shape_14      c    -1.000000E+00     1.165504E-02     1.000000E+00           
         15  dvs.shape_15      c    -1.000000E+00     1.165504E-02     1.000000E+00           
         16  dvs.shape_16      c    -1.000000E+00     0.000000E+00     1.000000E+00           
         17  dvs.shape_17      c    -1.000000E+00     0.000000E+00     1.000000E+00           
         18  dvs.shape_18      c    -1.000000E+00     8.216009E-26     1.000000E+00           
         19  dvs.shape_19      c    -1.000000E+00    -3.206303E-26     1.000000E+00           
         20  dvs.aoa_0         c     0.000000E+00     8.183960E-01     1.000000E+01           

   Constraints (i - inequality, e - equality)
      Index  Name                            Type          Lower           Value           Upper    Status  Lagrange Multiplier (N/A)
          0  cruise.aero_post.functionals.CL    e   5.000000E-01    4.999999E-01    5.000000E-01              9.00000E+100
          1  geometry.tecon                     e   0.000000E+00    0.000000E+00    0.000000E+00              9.00000E+100
          2  geometry.tecon                     e   0.000000E+00    5.009706E-26    0.000000E+00              9.00000E+100
          3  geometry.lecon                     e   0.000000E+00    4.083766E-27    0.000000E+00              9.00000E+100
          4  geometry.lecon                     e   0.000000E+00    0.000000E+00    0.000000E+00              9.00000E+100
          5  geometry.linearcon                 e   0.000000E+00    2.354134E-29    0.000000E+00              9.00000E+100
          6  geometry.linearcon                 e   0.000000E+00   -1.476928E-25    0.000000E+00              9.00000E+100
          7  geometry.linearcon                 e   0.000000E+00    0.000000E+00    0.000000E+00              9.00000E+100
          8  geometry.linearcon                 e   0.000000E+00    0.000000E+00    0.000000E+00              9.00000E+100
          9  geometry.linearcon                 e   0.000000E+00    0.000000E+00    0.000000E+00              9.00000E+100
         10  geometry.linearcon                 e   0.000000E+00    0.000000E+00    0.000000E+00              9.00000E+100
         11  geometry.linearcon                 e   0.000000E+00    0.000000E+00    0.000000E+00              9.00000E+100
         12  geometry.linearcon                 e   0.000000E+00    0.000000E+00    0.000000E+00              9.00000E+100
         13  geometry.linearcon                 e   0.000000E+00    0.000000E+00    0.000000E+00              9.00000E+100
         14  geometry.linearcon                 e   0.000000E+00    1.142231E-25    0.000000E+00              9.00000E+100
         15  geometry.thickcon                  i   5.000000E-01    1.005299E+00    3.000000E+00              9.00000E+100
         16  geometry.thickcon                  i   5.000000E-01    1.055201E+00    3.000000E+00              9.00000E+100
         17  geometry.thickcon                  i   5.000000E-01    1.084561E+00    3.000000E+00              9.00000E+100
         18  geometry.thickcon                  i   5.000000E-01    1.082383E+00    3.000000E+00              9.00000E+100
         19  geometry.thickcon                  i   5.000000E-01    1.035726E+00    3.000000E+00              9.00000E+100
         20  geometry.thickcon                  i   5.000000E-01    9.454339E-01    3.000000E+00              9.00000E+100
         21  geometry.thickcon                  i   5.000000E-01    8.630843E-01    3.000000E+00              9.00000E+100
         22  geometry.thickcon                  i   5.000000E-01    8.415646E-01    3.000000E+00              9.00000E+100
         23  geometry.thickcon                  i   5.000000E-01    8.865505E-01    3.000000E+00              9.00000E+100
         24  geometry.thickcon                  i   5.000000E-01    9.863388E-01    3.000000E+00              9.00000E+100
         25  geometry.thickcon                  i   5.000000E-01    1.005299E+00    3.000000E+00              9.00000E+100
         26  geometry.thickcon                  i   5.000000E-01    1.055201E+00    3.000000E+00              9.00000E+100
         27  geometry.thickcon                  i   5.000000E-01    1.084561E+00    3.000000E+00              9.00000E+100
         28  geometry.thickcon                  i   5.000000E-01    1.082383E+00    3.000000E+00              9.00000E+100
         29  geometry.thickcon                  i   5.000000E-01    1.035726E+00    3.000000E+00              9.00000E+100
         30  geometry.thickcon                  i   5.000000E-01    9.454339E-01    3.000000E+00              9.00000E+100
         31  geometry.thickcon                  i   5.000000E-01    8.630843E-01    3.000000E+00              9.00000E+100
         32  geometry.thickcon                  i   5.000000E-01    8.415646E-01    3.000000E+00              9.00000E+100
         33  geometry.thickcon                  i   5.000000E-01    8.865505E-01    3.000000E+00              9.00000E+100
         34  geometry.thickcon                  i   5.000000E-01    9.863388E-01    3.000000E+00              9.00000E+100
         35  geometry.volcon                    i   1.000000E+00    1.000000E+00    1.000000E+30         l    9.00000E+100


   Exit Status
      Inform  Description
           0  Solve Succeeded
--------------------------------------------------------------------------------

Driver debug print for iter coord: rank0:pyOptSparse_IPOPT|26
-------------------------------------------------------------
Design Vars
{'dvs.aoa': array([0.8183959971792606]),
 'dvs.shape': array([ 0.                ,  0.                , -0.                ,
        0.                ,  0.0227479954479172,  0.0227479954479172,
        0.0416692777250503,  0.0416692777250503,  0.0299365046682241,
        0.0299365046682241,  0.0392169238307734,  0.0392169238307734,
        0.052690613140737 ,  0.052690613140737 ,  0.0116550362135162,
        0.0116550362135162,  0.                ,  0.                ,
        0.                , -0.                ])}

Setting up primal boundary conditions based on pyOptions: 
Setting primal boundary conditions...
Setting U = (99.98979896239085 1.428321903725315 0) at inout
Setting primal boundary conditions...
Setting p = 101325 at inout
Setting primal boundary conditions...
Setting T = 300 at inout
Setting primal boundary conditions...
Setting nuTilda = 4.5e-05 at inout
Setting nut wall BC for wing. BCType=nutUSpaldingWallFunction
Running Primal Solver 032
Previous solution time 399 not found and nothing deleted.
No finite volume options present

Starting time loop

Checking mesh quality for time = 0
    Overall domain bounding box (-17.32229108539465 -18.48971982930447 0) (18.67906816835829 18.5729979324598 0.1)
    Mesh has 3 geometric (non-empty/wedge) directions 3{1}
    Mesh has 3 solution (non-empty) directions 3{1}
    Boundary openness (-5.562816146694216e-20 4.515697813198834e-19 -3.452130044539135e-16) OK.
    Max cell openness = 2.568031694799211e-16 OK.
    Max aspect ratio = 98.84591481487573 OK.
    Minimum face area = 2.2319082717004e-06. Maximum face area = 4.202851647348748.  Face area magnitudes OK.
    Min volume = 2.231908856722117e-07. Max volume = 0.4202851638799284.  Total volume = 104.7201151658398.  Cell volumes OK.
    Mesh non-orthogonality Max: 23.77766432716681 average: 2.89380868846021
    Non-orthogonality check OK.
    Face pyramids OK.
    Max skewness = 1.469297673611926 OK.
    Coupled point location match (average 0) OK.

Mesh OK.

Time = 1

U Initial residual: (0.0002347167665853387 0.0001588704788549894 2.014826411564122e-05)
U   Final residual: (2.07971344358003e-05 1.285712984868316e-05 2.013405400503248e-06)
he Initial residual: 0.0001092250587020277
he   Final residual: 8.697018831423569e-06
p Initial residual: 0.001614463409741734
p   Final residual: 0.0001239891489417833
Time step continuity errors : sum local = 3.27799643273509e-05
                                 global = -2.247059056015395e-06
                             cumulative = -0.00152555292739653
nuTilda Initial residual: 7.931544651507666e-05
nuTilda   Final residual: 7.559418181515222e-06
Bounding nuTilda>1e-16
yPlus min: 123.6470744397943 max: 215.030914986338 mean: 192.4733315356742
CD-part1-force: 0.005424448367617352
CL-part1-force: 0.4998666499257567
ExecutionTime = 1124.01 s  ClockTime = 1189 s

Time = 100

U Initial residual: (2.487434680042599e-05 1.309996232755092e-05 5.010749284640092e-06)
U   Final residual: (1.655656960018471e-06 1.031987278503187e-06 3.421393452562701e-07)
he Initial residual: 6.040561190264283e-05
he   Final residual: 5.814138350113432e-06
p Initial residual: 2.894188169481751e-05
p   Final residual: 1.52041627045919e-06
Time step continuity errors : sum local = 4.015463657493923e-07
                                 global = 2.502077141293806e-08
                             cumulative = -0.001525527906625117
nuTilda Initial residual: 2.875830340664394e-07
nuTilda   Final residual: 2.209752616209022e-08
Bounding nuTilda>1e-16
yPlus min: 123.2946627280724 max: 706.2655420937785 mean: 503.6436099393666
CD-part1-force: 0.01308635833841382
CL-part1-force: 0.5005193383614852
ExecutionTime = 1126.31 s  ClockTime = 1192 s

Time = 200

U Initial residual: (1.290843595142591e-06 1.063722516380031e-06 2.393463125688835e-07)
U   Final residual: (1.015885399572682e-07 8.327321585949369e-08 1.760297586842354e-08)
he Initial residual: 2.341812052147426e-06
he   Final residual: 1.691635082396889e-07
p Initial residual: 1.976863138482014e-06
p   Final residual: 1.835393547706635e-07
Time step continuity errors : sum local = 4.845630019884011e-08
                                 global = -7.756632008348681e-09
                             cumulative = -0.001525535663257125
nuTilda Initial residual: 8.864555046366186e-09
nuTilda   Final residual: 6.36384469427969e-10
Bounding nuTilda>1e-16
yPlus min: 123.3587586148344 max: 706.1840012278263 mean: 503.6320225778504
CD-part1-force: 0.01311121652218361
CL-part1-force: 0.500036107221959
ExecutionTime = 1128.73 s  ClockTime = 1194 s

Time = 300

U Initial residual: (8.195503021013973e-08 6.518602159190553e-08 1.519625071187932e-08)
U   Final residual: (6.832898841676059e-09 5.184609053596195e-09 1.132314645692685e-09)
he Initial residual: 1.470979126526137e-07
he   Final residual: 1.129113666486705e-08
p Initial residual: 8.136242523164569e-08
p   Final residual: 5.833795853770857e-09
Time step continuity errors : sum local = 1.540149096260776e-09
                                 global = 2.072582030851044e-10
                             cumulative = -0.001525535455998922
nuTilda Initial residual: 4.78267717679238e-10
nuTilda   Final residual: 3.863915753340443e-11
Bounding nuTilda>1e-16
yPlus min: 123.362859723701 max: 706.1794448559903 mean: 503.6313399740704
CD-part1-force: 0.01311275789754174
CL-part1-force: 0.5000021722112926
ExecutionTime = 1131.09 s  ClockTime = 1197 s

Time = 399
Minimal residual 9.996832518366561e-09 satisfied the prescribed tolerance 1e-08

CD-part1-force: 0.01311286042966242
CL-part1-force: 0.499999914529031
Printing Primal Residual Statistics.
U Residual Norm2: (0.0244396434894353 0.01719490205365974 0.0001855688052767423)
U Residual Mean: (0.000220037998952469 7.35672850227716e-05 1.315963451156506e-06)
U Residual Max: (0.003489434428047389 0.00450870706117712 3.960757659777331e-05)
p Residual Norm2: 0.0005846752572956993
p Residual Mean: 1.034499310235306e-06
p Residual Max: 0.0002642265405261613
T Residual Norm2: 3.085479343505942
T Residual Mean: 0.02629744068102107
T Residual Max: 0.5924495503395674
nuTilda Residual Norm2: 2.252073419581829e-06
nuTilda Residual Mean: 9.078789723971175e-09
nuTilda Residual Max: 3.431990457208015e-07
phi Residual Norm2: 3.331075923990094e-06
phi Residual Mean: 9.8340617071499e-09
phi Residual Max: 7.654508485627618e-07
End

Nonlinear constraints
{'cruise.aero_post.functionals.CL': array([0.4999999145294431]),
 'geometry.thickcon': array([1.0052990933715011, 1.0552008068830332, 1.0845613991787102,
       1.0823825907431075, 1.0357260164495141, 0.9454338731353285,
       0.8630842771302466, 0.8415646466130716, 0.8865504564293436,
       0.9863387617435507, 1.0052990933715027, 1.0552008068830327,
       1.0845613991787104, 1.0823825907431075, 1.0357260164495137,
       0.9454338731353283, 0.8630842771302465, 0.8415646466130717,
       0.886550456429344 , 0.9863387617435404]),
 'geometry.volcon': array([0.9999999991093144])}

Objectives
{'cruise.aero_post.functionals.CD': array([0.0131128604300906])}

/home/dafoamuser/dafoam/packages/miniconda3/lib/python3.8/site-packages/openmdao/core/component.py:140: OMDeprecationWarning:'cruise.coupling.solver' <class DAFoamSolver>: It appears this component mixes distributed/non-distributed inputs and outputs, so it may break starting with OpenMDAO 3.25, where the convention used when passing data between distributed and non-distributed inputs and outputs within a matrix free component will change. See https://github.com/OpenMDAO/POEMs/blob/master/POEM_075.md for details.
/home/dafoamuser/dafoam/packages/miniconda3/lib/python3.8/site-packages/openmdao/core/problem.py:1011: DerivativesWarning:Inefficient choice of derivative mode.  You chose 'rev' for a problem with 21 design variables and 23 response variables (objectives and nonlinear constraints).
/home/dafoamuser/dafoam/packages/miniconda3/lib/python3.8/site-packages/openmdao/core/component.py:140: OMDeprecationWarning:'cruise.coupling.solver' <class DAFoamSolver>: It appears this component mixes distributed/non-distributed inputs and outputs, so it may break starting with OpenMDAO 3.25, where the convention used when passing data between distributed and non-distributed inputs and outputs within a matrix free component will change. See https://github.com/OpenMDAO/POEMs/blob/master/POEM_075.md for details.
/home/dafoamuser/dafoam/packages/miniconda3/lib/python3.8/site-packages/openmdao/core/problem.py:1011: DerivativesWarning:Inefficient choice of derivative mode.  You chose 'rev' for a problem with 21 design variables and 23 response variables (objectives and nonlinear constraints).
/home/dafoamuser/dafoam/packages/miniconda3/lib/python3.8/site-packages/openmdao/core/component.py:140: OMDeprecationWarning:'cruise.coupling.solver' <class DAFoamSolver>: It appears this component mixes distributed/non-distributed inputs and outputs, so it may break starting with OpenMDAO 3.25, where the convention used when passing data between distributed and non-distributed inputs and outputs within a matrix free component will change. See https://github.com/OpenMDAO/POEMs/blob/master/POEM_075.md for details.
/home/dafoamuser/dafoam/packages/miniconda3/lib/python3.8/site-packages/openmdao/core/problem.py:1011: DerivativesWarning:Inefficient choice of derivative mode.  You chose 'rev' for a problem with 21 design variables and 23 response variables (objectives and nonlinear constraints).
/home/dafoamuser/dafoam/packages/miniconda3/lib/python3.8/site-packages/openmdao/core/component.py:140: OMDeprecationWarning:'cruise.coupling.solver' <class DAFoamSolver>: It appears this component mixes distributed/non-distributed inputs and outputs, so it may break starting with OpenMDAO 3.25, where the convention used when passing data between distributed and non-distributed inputs and outputs within a matrix free component will change. See https://github.com/OpenMDAO/POEMs/blob/master/POEM_075.md for details.
/home/dafoamuser/dafoam/packages/miniconda3/lib/python3.8/site-packages/openmdao/core/problem.py:1011: DerivativesWarning:Inefficient choice of derivative mode.  You chose 'rev' for a problem with 21 design variables and 23 response variables (objectives and nonlinear constraints).
Finalising parallel run
Finalising parallel run
